Schrodinger_fragment_1
                    3D
 Structure written by MMmdl.
  9  9  0  0  1  0            999 V2000
    1.7722   -3.0911    0.0213 C   0  0  0  0  0  0
    0.9478   -1.8260    0.0225 C   0  0  0  0  0  0
    0.2644   -3.1725    0.0192 C   0  0  0  0  0  0
    2.2926   -3.3530   -0.8984 H   0  0  0  0  0  0
    2.2901   -3.3563    0.9415 H   0  0  0  0  0  0
    0.9152   -1.2463    0.9435 H   0  0  0  0  0  0
    0.9177   -1.2430   -0.8965 H   0  0  0  0  0  0
   -0.2222   -3.4887   -0.9020 H   0  0  0  0  0  0
   -0.2247   -3.4920    0.9379 H   0  0  0  0  0  0
  1  2  1  0  0  0
  1  3  1  0  0  0
  1  4  1  0  0  0
  1  5  1  0  0  0
  2  3  1  0  0  0
  2  6  1  0  0  0
  2  7  1  0  0  0
  3  8  1  0  0  0
  3  9  1  0  0  0
M  END
> <s_m_entry_name>
Schrodinger_fragment_1

> <i_m_number_of_atoms>
9

> <r_m_molecular_weight>
42.08127

> <s_m_molecular_formula>
C3H6

> <r_epik_Ionization_Penalty>
  0.0000

> <r_epik_Ionization_Penalty_Charging>
  0.0000

> <r_epik_Ionization_Penalty_Neutral>
  0.0000

> <r_epik_State_Penalty>
  0.0000

> <i_epik_Tot_Q>
0

> <r_epik_Metal_State_Penalty>
  0.0000

> <b_epik_Metal_Only>
0

> <s_m_entry_id>
4376

> <s_canvas_Unique_SMILES_Stereo>
C1CC1

$$$$
Schrodinger_fragment_2
                    3D
 Structure written by MMmdl.
 15 15  0  0  1  0            999 V2000
    0.9853    0.9154    0.1503 C   0  0  0  0  0  0
    2.4116    0.4856   -0.1971 C   0  0  0  0  0  0
    3.2742    1.6652    0.2443 C   0  0  0  0  0  0
    2.4307    2.8943   -0.0988 C   0  0  0  0  0  0
    0.9664    2.4463    0.0244 C   0  0  0  0  0  0
    0.2426    0.4353   -0.4887 H   0  0  0  0  0  0
    0.7587    0.6316    1.1795 H   0  0  0  0  0  0
    2.6983   -0.4501    0.2852 H   0  0  0  0  0  0
    2.5039    0.3439   -1.2753 H   0  0  0  0  0  0
    3.4397    1.6184    1.3220 H   0  0  0  0  0  0
    4.2517    1.6773   -0.2402 H   0  0  0  0  0  0
    2.6617    3.7452    0.5439 H   0  0  0  0  0  0
    2.6327    3.2010   -1.1265 H   0  0  0  0  0  0
    0.3967    2.7625   -0.8509 H   0  0  0  0  0  0
    0.4890    2.8946    0.8972 H   0  0  0  0  0  0
  1  2  1  0  0  0
  1  5  1  0  0  0
  1  6  1  0  0  0
  1  7  1  0  0  0
  2  3  1  0  0  0
  2  8  1  0  0  0
  2  9  1  0  0  0
  3  4  1  0  0  0
  3 10  1  0  0  0
  3 11  1  0  0  0
  4  5  1  0  0  0
  4 12  1  0  0  0
  4 13  1  0  0  0
  5 14  1  0  0  0
  5 15  1  0  0  0
M  END
> <s_m_entry_name>
Schrodinger_fragment_2

> <i_m_number_of_atoms>
15

> <r_m_molecular_weight>
70.13545

> <s_m_molecular_formula>
C5H10

> <r_epik_Ionization_Penalty>
  0.0000

> <r_epik_Ionization_Penalty_Charging>
  0.0000

> <r_epik_Ionization_Penalty_Neutral>
  0.0000

> <r_epik_State_Penalty>
  0.0000

> <i_epik_Tot_Q>
0

> <r_epik_Metal_State_Penalty>
  0.0000

> <b_epik_Metal_Only>
0

> <s_m_entry_id>
4377

> <s_canvas_Unique_SMILES_Stereo>
C1CCCC1

$$$$
Schrodinger_fragment_3
                    3D
 Structure written by MMmdl.
 18 18  0  0  1  0            999 V2000
    4.1584    0.8958    0.2515 C   0  0  0  0  0  0
    4.1506    2.3634   -0.2075 C   0  0  0  0  0  0
    2.8785    3.0879    0.2629 C   0  0  0  0  0  0
    1.6122    2.3510   -0.2039 C   0  0  0  0  0  0
    1.6200    0.8835    0.2551 C   0  0  0  0  0  0
    2.8921    0.1589   -0.2153 C   0  0  0  0  0  0
    5.0459    0.3905   -0.1321 H   0  0  0  0  0  0
    4.2275    0.8525    1.3396 H   0  0  0  0  0  0
    5.0342    2.8773    0.1736 H   0  0  0  0  0  0
    4.2162    2.4073   -1.2958 H   0  0  0  0  0  0
    2.8797    3.1610    1.3516 H   0  0  0  0  0  0
    2.8730    4.1122   -0.1128 H   0  0  0  0  0  0
    0.7247    2.8564    0.1797 H   0  0  0  0  0  0
    1.5430    2.3943   -1.2920 H   0  0  0  0  0  0
    1.5544    0.8395    1.3434 H   0  0  0  0  0  0
    0.7363    0.3695   -0.1260 H   0  0  0  0  0  0
    2.8909    0.0858   -1.3040 H   0  0  0  0  0  0
    2.8976   -0.8653    0.1604 H   0  0  0  0  0  0
  1  2  1  0  0  0
  1  6  1  0  0  0
  1  7  1  0  0  0
  1  8  1  0  0  0
  2  3  1  0  0  0
  2  9  1  0  0  0
  2 10  1  0  0  0
  3  4  1  0  0  0
  3 11  1  0  0  0
  3 12  1  0  0  0
  4  5  1  0  0  0
  4 13  1  0  0  0
  4 14  1  0  0  0
  5  6  1  0  0  0
  5 15  1  0  0  0
  5 16  1  0  0  0
  6 17  1  0  0  0
  6 18  1  0  0  0
M  END
> <s_m_entry_name>
Schrodinger_fragment_3

> <i_m_number_of_atoms>
18

> <r_m_molecular_weight>
84.16254

> <s_m_molecular_formula>
C6H12

> <r_epik_Ionization_Penalty>
  0.0000

> <r_epik_Ionization_Penalty_Charging>
  0.0000

> <r_epik_Ionization_Penalty_Neutral>
  0.0000

> <r_epik_State_Penalty>
  0.0000

> <i_epik_Tot_Q>
0

> <r_epik_Metal_State_Penalty>
  0.0000

> <b_epik_Metal_Only>
0

> <s_m_entry_id>
4378

> <s_canvas_Unique_SMILES_Stereo>
C1CCCCC1

$$$$
Schrodinger_fragment_4
                    3D
 Structure written by MMmdl.
 19 20  0  0  1  0            999 V2000
    0.0275   -3.7366   -1.2258 C   0  0  0  0  0  0
    1.2350   -2.8392   -0.8970 C   0  0  0  0  0  0
    2.1208   -3.5437    0.1472 C   0  0  0  0  0  0
    1.2712   -3.4537    1.4297 C   0  0  0  0  0  0
   -0.8220   -3.6466    0.0567 C   0  0  0  0  0  0
    0.0110   -2.7096    0.9508 C   0  0  2  0  0  0
    0.5895   -1.7344   -0.0682 C   0  0  0  0  0  0
   -0.5263   -3.3466   -2.0813 H   0  0  0  0  0  0
    0.3225   -4.7605   -1.4605 H   0  0  0  0  0  0
    1.7814   -2.4984   -1.7779 H   0  0  0  0  0  0
    2.3508   -4.5735   -0.1300 H   0  0  0  0  0  0
    3.0669   -3.0154    0.2756 H   0  0  0  0  0  0
    1.0407   -4.4348    1.8478 H   0  0  0  0  0  0
    1.7941   -2.8806    2.1972 H   0  0  0  0  0  0
   -1.7992   -3.2117   -0.1598 H   0  0  0  0  0  0
   -0.9876   -4.6217    0.5174 H   0  0  0  0  0  0
   -0.5612   -2.2503    1.7585 H   0  0  0  0  0  0
    1.3106   -1.0352    0.3603 H   0  0  0  0  0  0
   -0.1721   -1.1718   -0.6122 H   0  0  0  0  0  0
  1  2  1  0  0  0
  1  5  1  0  0  0
  1  8  1  0  0  0
  1  9  1  0  0  0
  2  3  1  0  0  0
  2  7  1  0  0  0
  2 10  1  0  0  0
  3  4  1  0  0  0
  3 11  1  0  0  0
  3 12  1  0  0  0
  4  6  1  0  0  0
  4 13  1  0  0  0
  4 14  1  0  0  0
  5  6  1  0  0  0
  5 15  1  0  0  0
  5 16  1  0  0  0
  6  7  1  0  0  0
  6 17  1  0  0  0
  7 18  1  0  0  0
  7 19  1  0  0  0
M  END
> <s_m_entry_name>
Schrodinger_fragment_4

> <i_m_number_of_atoms>
19

> <r_m_molecular_weight>
96.17369

> <s_m_molecular_formula>
C7H12

> <r_epik_Ionization_Penalty>
  0.0000

> <r_epik_Ionization_Penalty_Charging>
  0.0000

> <r_epik_Ionization_Penalty_Neutral>
  0.0000

> <r_epik_State_Penalty>
  0.0000

> <i_epik_Tot_Q>
0

> <r_epik_Metal_State_Penalty>
  0.0000

> <b_epik_Metal_Only>
0

> <s_m_entry_id>
4379

> <s_canvas_Unique_SMILES_Stereo>
C12CC(CC1)CC2

$$$$
Schrodinger_fragment_5
                    3D
 Structure written by MMmdl.
 22 23  0  0  1  0            999 V2000
   -1.6955   -3.8660   -0.2084 C   0  0  0  0  0  0
   -0.7101   -3.7836    0.9788 C   0  0  0  0  0  0
   -0.6802   -2.3286    1.4980 C   0  0  0  0  0  0
   -1.2543   -2.9028   -1.3385 C   0  0  0  0  0  0
   -0.2391   -1.3656    0.3678 C   0  0  0  0  0  0
    0.0356   -2.1563   -0.9309 C   0  0  0  0  0  0
    0.7021   -4.1598    0.4775 C   0  0  0  0  0  0
    1.1434   -3.1968   -0.6526 C   0  0  0  0  0  0
   -1.7442   -4.8885   -0.5859 H   0  0  0  0  0  0
   -2.7047   -3.6168    0.1230 H   0  0  0  0  0  0
   -1.0211   -4.4621    1.7751 H   0  0  0  0  0  0
   -1.6649   -2.0423    1.8706 H   0  0  0  0  0  0
    0.0006   -2.2465    2.3466 H   0  0  0  0  0  0
   -1.0902   -3.4599   -2.2622 H   0  0  0  0  0  0
   -2.0502   -2.1880   -1.5529 H   0  0  0  0  0  0
   -1.0108   -0.6142    0.1940 H   0  0  0  0  0  0
    0.6547   -0.8179    0.6704 H   0  0  0  0  0  0
    0.3466   -1.4779   -1.7271 H   0  0  0  0  0  0
    1.4160   -4.1216    1.3018 H   0  0  0  0  0  0
    0.7107   -5.1894    0.1165 H   0  0  0  0  0  0
    1.3653   -3.7611   -1.5597 H   0  0  0  0  0  0
    2.0705   -2.6933   -0.3745 H   0  0  0  0  0  0
  1  2  1  0  0  0
  1  4  1  0  0  0
  1  9  1  0  0  0
  1 10  1  0  0  0
  2  3  1  0  0  0
  2  7  1  0  0  0
  2 11  1  0  0  0
  3  5  1  0  0  0
  3 12  1  0  0  0
  3 13  1  0  0  0
  4  6  1  0  0  0
  4 14  1  0  0  0
  4 15  1  0  0  0
  5  6  1  0  0  0
  5 16  1  0  0  0
  5 17  1  0  0  0
  6  8  1  0  0  0
  6 18  1  0  0  0
  7  8  1  0  0  0
  7 19  1  0  0  0
  7 20  1  0  0  0
  8 21  1  0  0  0
  8 22  1  0  0  0
M  END
> <s_m_entry_name>
Schrodinger_fragment_5

> <i_m_number_of_atoms>
22

> <r_m_molecular_weight>
110.20078

> <s_m_molecular_formula>
C8H14

> <r_epik_Ionization_Penalty>
  0.0000

> <r_epik_Ionization_Penalty_Charging>
  0.0000

> <r_epik_Ionization_Penalty_Neutral>
  0.0000

> <r_epik_State_Penalty>
  0.0000

> <i_epik_Tot_Q>
0

> <r_epik_Metal_State_Penalty>
  0.0000

> <b_epik_Metal_Only>
0

> <s_m_entry_id>
4380

> <s_canvas_Unique_SMILES_Stereo>
C12CCC(CC1)CC2

$$$$
Schrodinger_fragment_6
                    3D
 Structure written by MMmdl.
  6  5  0  0  1  0            999 V2000
    3.5377   -5.3788    0.0249 C   0  0  0  0  0  0
    4.7694   -4.6803    0.0347 O   0  0  0  0  0  0
    3.1965   -5.5699    1.0429 H   0  0  0  0  0  0
    2.7714   -4.7984   -0.4903 H   0  0  0  0  0  0
    3.6436   -6.3363   -0.4866 H   0  0  0  0  0  0
    5.0267   -4.5366   -0.8734 H   0  0  0  0  0  0
  1  2  1  0  0  0
  1  3  1  0  0  0
  1  4  1  0  0  0
  1  5  1  0  0  0
  2  6  1  0  0  0
M  END
> <s_m_entry_name>
Schrodinger_fragment_6

> <i_m_number_of_atoms>
6

> <r_m_molecular_weight>
32.04243

> <s_m_molecular_formula>
C1H4O1

> <r_epik_Ionization_Penalty>
  0.0000

> <r_epik_Ionization_Penalty_Charging>
  0.0000

> <r_epik_Ionization_Penalty_Neutral>
  0.0000

> <r_epik_State_Penalty>
  0.0000

> <i_epik_Tot_Q>
0

> <r_epik_Metal_State_Penalty>
  0.0000

> <b_epik_Metal_Only>
0

> <s_m_entry_id>
4381

> <s_canvas_Unique_SMILES_Stereo>
CO

$$$$
Schrodinger_fragment_7
                    3D
 Structure written by MMmdl.
  9  8  0  0  1  0            999 V2000
    3.8954   -3.2363    0.0288 C   0  0  0  0  0  0
    2.7163   -2.4448    0.0244 O   0  0  0  0  0  0
    1.5395   -3.2395    0.0133 C   0  0  0  0  0  0
    4.7739   -2.5908    0.0373 H   0  0  0  0  0  0
    3.9528   -3.8673   -0.8594 H   0  0  0  0  0  0
    3.9412   -3.8748    0.9123 H   0  0  0  0  0  0
    0.6592   -2.5965    0.0102 H   0  0  0  0  0  0
    1.4839   -3.8781    0.8962 H   0  0  0  0  0  0
    1.4955   -3.8707   -0.8756 H   0  0  0  0  0  0
  1  2  1  0  0  0
  1  4  1  0  0  0
  1  5  1  0  0  0
  1  6  1  0  0  0
  2  3  1  0  0  0
  3  7  1  0  0  0
  3  8  1  0  0  0
  3  9  1  0  0  0
M  END
> <s_m_entry_name>
Schrodinger_fragment_7

> <i_m_number_of_atoms>
9

> <r_m_molecular_weight>
46.06952

> <s_m_molecular_formula>
C2H6O1

> <r_epik_Ionization_Penalty>
  0.0000

> <r_epik_Ionization_Penalty_Charging>
  0.0000

> <r_epik_Ionization_Penalty_Neutral>
  0.0000

> <r_epik_State_Penalty>
  0.0000

> <i_epik_Tot_Q>
0

> <r_epik_Metal_State_Penalty>
  0.0000

> <b_epik_Metal_Only>
0

> <s_m_entry_id>
4382

> <s_canvas_Unique_SMILES_Stereo>
COC

$$$$
Schrodinger_fragment_8
                    3D
 Structure written by MMmdl.
  8  7  0  0  1  0            999 V2000
    2.0276   -2.7210    0.0265 C   0  0  0  0  0  0
    1.6972   -2.9079    1.0484 H   0  0  0  0  0  0
    1.2538   -2.1467   -0.4830 H   0  0  0  0  0  0
    2.1304   -3.6806   -0.4803 H   0  0  0  0  0  0
    3.6040   -1.8219   -0.9233 H   0  0  0  0  0  0
    3.2044   -1.1089    0.4871 H   0  0  0  0  0  0
    3.3044   -1.9914    0.0195 N   0  3  0  0  0  0
    4.0132   -2.5242    0.4897 H   0  0  0  0  0  0
  1  2  1  0  0  0
  1  3  1  0  0  0
  1  4  1  0  0  0
  1  7  1  0  0  0
  5  7  1  0  0  0
  6  7  1  0  0  0
  7  8  1  0  0  0
M  CHG  1   7   1
M  END
> <s_m_entry_name>
Schrodinger_fragment_8

> <i_m_number_of_atoms>
8

> <r_m_molecular_weight>
32.06567

> <s_m_molecular_formula>
C1H6N1

> <r_epik_Ionization_Penalty>
  0.0024

> <r_epik_Ionization_Penalty_Charging>
  0.0024

> <r_epik_Ionization_Penalty_Neutral>
  0.0000

> <r_epik_State_Penalty>
  0.0000

> <i_epik_Tot_Q>
1

> <r_epik_Metal_State_Penalty>
  0.0000

> <b_epik_Metal_Only>
0

> <s_m_entry_id>
4383

> <s_canvas_Unique_SMILES_Stereo>
C[NH3+]

$$$$
Schrodinger_fragment_9
                    3D
 Structure written by MMmdl.
 11 10  0  0  1  0            999 V2000
    3.3192   -2.0476    0.0283 C   0  0  0  0  0  0
    2.0845   -4.1923    0.0160 C   0  0  0  0  0  0
    4.3200   -1.6158    0.0335 H   0  0  0  0  0  0
    2.7921   -1.6868    0.9119 H   0  0  0  0  0  0
    2.7985   -1.6804   -0.8565 H   0  0  0  0  0  0
    2.2138   -5.2747    0.0126 H   0  0  0  0  0  0
    1.5099   -3.9189   -0.8693 H   0  0  0  0  0  0
    1.5035   -3.9253    0.8991 H   0  0  0  0  0  0
    3.3970   -3.5201    0.0232 N   0  3  0  0  0  0
    3.9165   -3.8145   -0.7876 H   0  0  0  0  0  0
    3.9106   -3.8204    0.8357 H   0  0  0  0  0  0
  1  3  1  0  0  0
  1  4  1  0  0  0
  1  5  1  0  0  0
  1  9  1  0  0  0
  2  6  1  0  0  0
  2  7  1  0  0  0
  2  8  1  0  0  0
  2  9  1  0  0  0
  9 10  1  0  0  0
  9 11  1  0  0  0
M  CHG  1   9   1
M  END
> <s_m_entry_name>
Schrodinger_fragment_9

> <i_m_number_of_atoms>
11

> <r_m_molecular_weight>
46.09276

> <s_m_molecular_formula>
C2H8N1

> <r_epik_Ionization_Penalty>
  0.0012

> <r_epik_Ionization_Penalty_Charging>
  0.0012

> <r_epik_Ionization_Penalty_Neutral>
  0.0000

> <r_epik_State_Penalty>
  0.0000

> <i_epik_Tot_Q>
1

> <r_epik_Metal_State_Penalty>
  0.0000

> <b_epik_Metal_Only>
0

> <s_m_entry_id>
4384

> <s_canvas_Unique_SMILES_Stereo>
C[NH2+]C

$$$$
Schrodinger_fragment_10
                    3D
 Structure written by MMmdl.
 14 13  0  0  1  0            999 V2000
    2.1188   -4.2028   -0.1619 C   0  0  0  0  0  0
    4.5776   -4.1983   -0.1872 C   0  0  0  0  0  0
    3.3441   -2.0712   -0.2024 C   0  0  0  0  0  0
    1.2337   -3.6968    0.2248 H   0  0  0  0  0  0
    2.1159   -5.2181    0.2356 H   0  0  0  0  0  0
    2.0270   -4.2637   -1.2468 H   0  0  0  0  0  0
    5.4686   -3.6892    0.1812 H   0  0  0  0  0  0
    4.6472   -4.2590   -1.2738 H   0  0  0  0  0  0
    4.5923   -5.2136    0.2101 H   0  0  0  0  0  0
    4.2263   -1.5469    0.1659 H   0  0  0  0  0  0
    2.4678   -1.5500    0.1840 H   0  0  0  0  0  0
    3.3327   -1.9923   -1.2900 H   0  0  0  0  0  0
    3.3511   -3.4853    0.2318 N   0  3  0  0  0  0
    3.3614   -3.4721    1.2412 H   0  0  0  0  0  0
  1  4  1  0  0  0
  1  5  1  0  0  0
  1  6  1  0  0  0
  1 13  1  0  0  0
  2  7  1  0  0  0
  2  8  1  0  0  0
  2  9  1  0  0  0
  2 13  1  0  0  0
  3 10  1  0  0  0
  3 11  1  0  0  0
  3 12  1  0  0  0
  3 13  1  0  0  0
 13 14  1  0  0  0
M  CHG  1  13   1
M  END
> <s_m_entry_name>
Schrodinger_fragment_10

> <i_m_number_of_atoms>
14

> <r_m_molecular_weight>
60.11985

> <s_m_molecular_formula>
C3H10N1

> <r_epik_Ionization_Penalty>
  0.0019

> <r_epik_Ionization_Penalty_Charging>
  0.0019

> <r_epik_Ionization_Penalty_Neutral>
  0.0000

> <r_epik_State_Penalty>
  0.0000

> <i_epik_Tot_Q>
1

> <r_epik_Metal_State_Penalty>
  0.0000

> <b_epik_Metal_Only>
0

> <s_m_entry_id>
4385

> <s_canvas_Unique_SMILES_Stereo>
C[NH+](C)C

$$$$
Schrodinger_fragment_11
                    3D
 Structure written by MMmdl.
  6  5  0  0  1  0            999 V2000
   -1.6189   -1.5186    0.0529 C   0  0  0  0  0  0
   -0.0500   -0.6141    0.1466 S   0  0  0  0  0  0
   -2.0051   -1.7200    1.0523 H   0  0  0  0  0  0
   -2.3626   -0.9378   -0.4930 H   0  0  0  0  0  0
   -1.4812   -2.4700   -0.4612 H   0  0  0  0  0  0
    0.1386   -0.5331   -1.1773 H   0  0  0  0  0  0
  1  2  1  0  0  0
  1  3  1  0  0  0
  1  4  1  0  0  0
  1  5  1  0  0  0
  2  6  1  0  0  0
M  END
> <s_m_entry_name>
Schrodinger_fragment_11

> <i_m_number_of_atoms>
6

> <r_m_molecular_weight>
48.10703

> <s_m_molecular_formula>
C1H4S1

> <r_epik_Ionization_Penalty>
  0.0013

> <r_epik_Ionization_Penalty_Charging>
  0.0000

> <r_epik_Ionization_Penalty_Neutral>
  0.0013

> <r_epik_State_Penalty>
  0.0000

> <i_epik_Tot_Q>
0

> <r_epik_Metal_State_Penalty>
  0.6963

> <b_epik_Metal_Only>
0

> <s_m_entry_id>
4386

> <s_canvas_Unique_SMILES_Stereo>
CS

$$$$
Schrodinger_fragment_11_a
                    3D
 Structure written by MMmdl.
  5  4  0  0  1  0            999 V2000
   -1.6105   -1.5137    0.0527 C   0  0  0  0  0  0
   -0.0478   -0.6128    0.1448 S   0  5  0  0  0  0
   -2.0075   -1.7214    1.0505 H   0  0  0  0  0  0
   -2.3664   -0.9412   -0.4924 H   0  0  0  0  0  0
   -1.4860   -2.4716   -0.4606 H   0  0  0  0  0  0
  1  2  1  0  0  0
  1  3  1  0  0  0
  1  4  1  0  0  0
  1  5  1  0  0  0
M  CHG  1   2  -1
M  END
> <s_m_entry_name>
Schrodinger_fragment_11

> <i_m_number_of_atoms>
6

> <r_m_molecular_weight>
48.10703

> <s_m_molecular_formula>
C1H4S1

> <r_epik_Ionization_Penalty>
  3.6166

> <r_epik_Ionization_Penalty_Charging>
  3.6166

> <r_epik_Ionization_Penalty_Neutral>
  0.0000

> <r_epik_State_Penalty>
  3.6153

> <i_epik_Tot_Q>
-1

> <r_epik_Metal_State_Penalty>
  0.2188

> <b_epik_Metal_Only>
1

> <s_m_entry_id>
4387

> <s_canvas_Unique_SMILES_Stereo>
C[S-]

$$$$
Schrodinger_fragment_12
                    3D
 Structure written by MMmdl.
  6  5  0  0  1  0            999 V2000
   -2.1124   -0.8296    0.0282 C   0  0  0  0  0  0
   -0.8467   -0.0860    0.0222 C   0  0  0  0  0  0
    0.1546    0.5023    0.0174 N   0  0  0  0  0  0
   -2.4325   -1.0177   -0.9957 H   0  0  0  0  0  0
   -2.8769   -0.2488    0.5425 H   0  0  0  0  0  0
   -1.9772   -1.7802    0.5425 H   0  0  0  0  0  0
  1  2  1  0  0  0
  1  4  1  0  0  0
  1  5  1  0  0  0
  1  6  1  0  0  0
  2  3  3  0  0  0
M  END
> <s_m_entry_name>
Schrodinger_fragment_12

> <i_m_number_of_atoms>
6

> <r_m_molecular_weight>
41.05291

> <s_m_molecular_formula>
C2H3N1

> <r_epik_Ionization_Penalty>
  0.0000

> <r_epik_Ionization_Penalty_Charging>
  0.0000

> <r_epik_Ionization_Penalty_Neutral>
  0.0000

> <r_epik_State_Penalty>
  0.0000

> <i_epik_Tot_Q>
0

> <r_epik_Metal_State_Penalty>
  0.0000

> <b_epik_Metal_Only>
0

> <s_m_entry_id>
4388

> <s_canvas_Unique_SMILES_Stereo>
N#CC

$$$$
Schrodinger_fragment_13
                    3D
 Structure written by MMmdl.
 10  9  0  0  1  0            999 V2000
    0.9732   -2.4114    0.0157 C   0  0  0  0  0  0
   -0.3258   -1.6201    0.0221 C   0  0  0  0  0  0
   -0.3215   -0.3872    0.0229 O   0  0  0  0  0  0
   -1.6286   -2.4055    0.0274 C   0  0  0  0  0  0
    0.7711   -3.4823    0.0158 H   0  0  0  0  0  0
    1.5653   -2.1714    0.8983 H   0  0  0  0  0  0
    1.5574   -2.1701   -0.8720 H   0  0  0  0  0  0
   -2.4844   -1.7310    0.0317 H   0  0  0  0  0  0
   -1.6824   -3.0393    0.9121 H   0  0  0  0  0  0
   -1.6904   -3.0381   -0.8577 H   0  0  0  0  0  0
  1  2  1  0  0  0
  1  5  1  0  0  0
  1  6  1  0  0  0
  1  7  1  0  0  0
  2  3  2  0  0  0
  2  4  1  0  0  0
  4  8  1  0  0  0
  4  9  1  0  0  0
  4 10  1  0  0  0
M  END
> <s_m_entry_name>
Schrodinger_fragment_13

> <i_m_number_of_atoms>
10

> <r_m_molecular_weight>
58.08067

> <s_m_molecular_formula>
C3H6O1

> <r_epik_Ionization_Penalty>
  0.0000

> <r_epik_Ionization_Penalty_Charging>
  0.0000

> <r_epik_Ionization_Penalty_Neutral>
  0.0000

> <r_epik_State_Penalty>
  0.0000

> <i_epik_Tot_Q>
0

> <r_epik_Metal_State_Penalty>
  0.0000

> <b_epik_Metal_Only>
0

> <s_m_entry_id>
4389

> <s_canvas_Unique_SMILES_Stereo>
CC(=O)C

$$$$
Schrodinger_fragment_14
                    3D
 Structure written by MMmdl.
  7  6  0  0  1  0            999 V2000
    0.1239   -2.4455    0.0258 C   0  0  0  0  0  0
    1.4342   -1.6802    0.0183 C   0  0  0  0  0  0
    1.3885   -0.4350    0.0259 O   0  0  0  0  0  0
    0.2930   -3.5233    0.0180 H   0  0  0  0  0  0
   -0.4725   -2.1914   -0.8515 H   0  0  0  0  0  0
   -0.4564   -2.2017    0.9167 H   0  0  0  0  0  0
    2.4999   -2.3260    0.0049 O   0  5  0  0  0  0
  1  2  1  0  0  0
  1  4  1  0  0  0
  1  5  1  0  0  0
  1  6  1  0  0  0
  2  3  2  0  0  0
  2  7  1  0  0  0
M  CHG  1   7  -1
M  END
> <s_m_entry_name>
Schrodinger_fragment_14

> <i_m_number_of_atoms>
7

> <r_m_molecular_weight>
59.04501

> <s_m_molecular_formula>
C2H3O2

> <r_epik_Ionization_Penalty>
  0.0034

> <r_epik_Ionization_Penalty_Charging>
  0.0034

> <r_epik_Ionization_Penalty_Neutral>
  0.0000

> <r_epik_State_Penalty>
  0.0000

> <i_epik_Tot_Q>
-1

> <r_epik_Metal_State_Penalty>
  0.0000

> <b_epik_Metal_Only>
0

> <s_m_entry_id>
4390

> <s_canvas_Unique_SMILES_Stereo>
[O-]C(=O)C

$$$$
Schrodinger_fragment_15
                    3D
 Structure written by MMmdl.
  9  8  0  0  1  0            999 V2000
    0.1180   -2.4424    0.0176 C   0  0  0  0  0  0
    1.4271   -1.6642    0.0191 C   0  0  0  0  0  0
    1.4222   -0.4357    0.0133 O   0  0  0  0  0  0
    2.5616   -2.3526    0.0269 N   0  0  0  0  0  0
    0.2845   -3.5200    0.0233 H   0  0  0  0  0  0
   -0.4661   -2.1945   -0.8690 H   0  0  0  0  0  0
   -0.4732   -2.1862    0.8970 H   0  0  0  0  0  0
    3.4521   -1.8731    0.0282 H   0  0  0  0  0  0
    2.5507   -3.3642    0.0317 H   0  0  0  0  0  0
  1  2  1  0  0  0
  1  5  1  0  0  0
  1  6  1  0  0  0
  1  7  1  0  0  0
  2  3  2  0  0  0
  2  4  1  0  0  0
  4  8  1  0  0  0
  4  9  1  0  0  0
M  END
> <s_m_entry_name>
Schrodinger_fragment_15

> <i_m_number_of_atoms>
9

> <r_m_molecular_weight>
59.06825

> <s_m_molecular_formula>
C2H5N1O1

> <r_epik_Ionization_Penalty>
  0.0000

> <r_epik_Ionization_Penalty_Charging>
  0.0000

> <r_epik_Ionization_Penalty_Neutral>
  0.0000

> <r_epik_State_Penalty>
  0.0000

> <i_epik_Tot_Q>
0

> <r_epik_Metal_State_Penalty>
  0.0000

> <b_epik_Metal_Only>
0

> <s_m_entry_id>
4391

> <s_canvas_Unique_SMILES_Stereo>
NC(=O)C

$$$$
Schrodinger_fragment_16
                    3D
 Structure written by MMmdl.
 12 11  0  0  1  0            999 V2000
   -1.9405   -2.4772    0.0191 C   0  0  0  0  0  0
   -0.6479   -1.6726    0.0217 C   0  0  0  0  0  0
   -0.6892   -0.4416    0.0208 O   0  0  0  0  0  0
    0.5008   -2.3562    0.0248 N   0  0  0  0  0  0
    1.8247   -1.7466    0.0276 C   0  0  0  0  0  0
   -1.7504   -3.5509    0.0202 H   0  0  0  0  0  0
   -2.5302   -2.2378   -0.8659 H   0  0  0  0  0  0
   -2.5345   -2.2368    0.9009 H   0  0  0  0  0  0
    0.4534   -3.3680    0.0253 H   0  0  0  0  0  0
    2.5958   -2.5174    0.0299 H   0  0  0  0  0  0
    1.9663   -1.1240    0.9122 H   0  0  0  0  0  0
    1.9706   -1.1251   -0.8571 H   0  0  0  0  0  0
  1  2  1  0  0  0
  1  6  1  0  0  0
  1  7  1  0  0  0
  1  8  1  0  0  0
  2  3  2  0  0  0
  2  4  1  0  0  0
  4  5  1  0  0  0
  4  9  1  0  0  0
  5 10  1  0  0  0
  5 11  1  0  0  0
  5 12  1  0  0  0
M  END
> <s_m_entry_name>
Schrodinger_fragment_16

> <i_m_number_of_atoms>
12

> <r_m_molecular_weight>
73.09534

> <s_m_molecular_formula>
C3H7N1O1

> <r_epik_Ionization_Penalty>
  0.0000

> <r_epik_Ionization_Penalty_Charging>
  0.0000

> <r_epik_Ionization_Penalty_Neutral>
  0.0000

> <r_epik_State_Penalty>
  0.0000

> <i_epik_Tot_Q>
0

> <r_epik_Metal_State_Penalty>
  0.0000

> <b_epik_Metal_Only>
0

> <s_m_entry_id>
4392

> <s_canvas_Unique_SMILES_Stereo>
CC(=O)NC

$$$$
Schrodinger_fragment_17
                    3D
 Structure written by MMmdl.
 15 14  0  0  1  0            999 V2000
   -2.1610   -1.6894    0.1055 C   0  0  0  0  0  0
   -0.8306   -0.9386    0.1406 C   0  0  0  0  0  0
   -0.8503    0.2887    0.2727 O   0  0  0  0  0  0
    0.3207   -1.6397    0.0300 N   0  0  0  0  0  0
    1.6210   -0.9655    0.0801 C   0  0  0  0  0  0
    0.3503   -3.0919   -0.1669 C   0  0  0  0  0  0
   -2.1930   -2.4586    0.8769 H   0  0  0  0  0  0
   -2.3128   -2.1580   -0.8665 H   0  0  0  0  0  0
   -2.9925   -1.0069    0.2811 H   0  0  0  0  0  0
    2.4430   -1.6560    0.2700 H   0  0  0  0  0  0
    1.6498   -0.2177    0.8745 H   0  0  0  0  0  0
    1.8189   -0.4595   -0.8655 H   0  0  0  0  0  0
    1.3547   -3.4665   -0.3654 H   0  0  0  0  0  0
   -0.2664   -3.3862   -1.0171 H   0  0  0  0  0  0
   -0.0213   -3.6069    0.7198 H   0  0  0  0  0  0
  1  2  1  0  0  0
  1  7  1  0  0  0
  1  8  1  0  0  0
  1  9  1  0  0  0
  2  3  2  0  0  0
  2  4  1  0  0  0
  4  5  1  0  0  0
  4  6  1  0  0  0
  5 10  1  0  0  0
  5 11  1  0  0  0
  5 12  1  0  0  0
  6 13  1  0  0  0
  6 14  1  0  0  0
  6 15  1  0  0  0
M  END
> <s_m_entry_name>
Schrodinger_fragment_17

> <i_m_number_of_atoms>
15

> <r_m_molecular_weight>
87.12243

> <s_m_molecular_formula>
C4H9N1O1

> <r_epik_Ionization_Penalty>
  0.0000

> <r_epik_Ionization_Penalty_Charging>
  0.0000

> <r_epik_Ionization_Penalty_Neutral>
  0.0000

> <r_epik_State_Penalty>
  0.0000

> <i_epik_Tot_Q>
0

> <r_epik_Metal_State_Penalty>
  0.0000

> <b_epik_Metal_Only>
0

> <s_m_entry_id>
4393

> <s_canvas_Unique_SMILES_Stereo>
CC(=O)N(C)C

$$$$
Schrodinger_fragment_18
                    3D
 Structure written by MMmdl.
 11 10  0  0  1  0            999 V2000
    0.2365   -2.3487    0.0241 N   0  0  0  0  0  0
    1.3690   -1.6484    0.0199 C   0  0  0  0  0  0
    1.4252   -0.4228    0.0162 O   0  0  0  0  0  0
    2.4535   -2.3959    0.0201 N   0  0  0  0  0  0
   -1.0908   -1.7463    0.0248 C   0  0  0  0  0  0
    0.2771   -3.3591    0.0270 H   0  0  0  0  0  0
    3.3615   -1.9488    0.0171 H   0  0  0  0  0  0
    2.4089   -3.4059    0.0232 H   0  0  0  0  0  0
   -1.8576   -2.5212    0.0285 H   0  0  0  0  0  0
   -1.2372   -1.1272   -0.8615 H   0  0  0  0  0  0
   -1.2339   -1.1220    0.9080 H   0  0  0  0  0  0
  1  2  1  0  0  0
  1  5  1  0  0  0
  1  6  1  0  0  0
  2  3  2  0  0  0
  2  4  1  0  0  0
  4  7  1  0  0  0
  4  8  1  0  0  0
  5  9  1  0  0  0
  5 10  1  0  0  0
  5 11  1  0  0  0
M  END
> <s_m_entry_name>
Schrodinger_fragment_18

> <i_m_number_of_atoms>
11

> <r_m_molecular_weight>
74.08292

> <s_m_molecular_formula>
C2H6N2O1

> <r_epik_Ionization_Penalty>
  0.0001

> <r_epik_Ionization_Penalty_Charging>
  0.0000

> <r_epik_Ionization_Penalty_Neutral>
  0.0001

> <r_epik_State_Penalty>
  0.0000

> <i_epik_Tot_Q>
0

> <r_epik_Metal_State_Penalty>
  0.0000

> <b_epik_Metal_Only>
0

> <s_m_entry_id>
4394

> <s_canvas_Unique_SMILES_Stereo>
NC(=O)NC

$$$$
Schrodinger_fragment_19
                    3D
 Structure written by MMmdl.
 14 13  0  0  1  0            999 V2000
    1.5664   -2.3147    0.0244 N   0  0  0  0  0  0
    2.6792   -1.5804    0.0249 C   0  0  0  0  0  0
    2.6801   -0.3487    0.0243 O   0  0  0  0  0  0
    3.7910   -2.3163    0.0263 N   0  0  0  0  0  0
    0.2186   -1.7590    0.0229 C   0  0  0  0  0  0
    5.1396   -1.7625    0.0272 C   0  0  0  0  0  0
    1.6489   -3.3227    0.0250 H   0  0  0  0  0  0
    3.7070   -3.3242    0.0268 H   0  0  0  0  0  0
   -0.5210   -2.5600    0.0227 H   0  0  0  0  0  0
    0.0523   -1.1431   -0.8623 H   0  0  0  0  0  0
    0.0508   -1.1422    0.9071 H   0  0  0  0  0  0
    5.8780   -2.5645    0.0282 H   0  0  0  0  0  0
    5.3067   -1.1459    0.9117 H   0  0  0  0  0  0
    5.3082   -1.1468   -0.8577 H   0  0  0  0  0  0
  1  2  1  0  0  0
  1  5  1  0  0  0
  1  7  1  0  0  0
  2  3  2  0  0  0
  2  4  1  0  0  0
  4  6  1  0  0  0
  4  8  1  0  0  0
  5  9  1  0  0  0
  5 10  1  0  0  0
  5 11  1  0  0  0
  6 12  1  0  0  0
  6 13  1  0  0  0
  6 14  1  0  0  0
M  END
> <s_m_entry_name>
Schrodinger_fragment_19

> <i_m_number_of_atoms>
14

> <r_m_molecular_weight>
88.11001

> <s_m_molecular_formula>
C3H8N2O1

> <r_epik_Ionization_Penalty>
  0.0001

> <r_epik_Ionization_Penalty_Charging>
  0.0000

> <r_epik_Ionization_Penalty_Neutral>
  0.0001

> <r_epik_State_Penalty>
  0.0000

> <i_epik_Tot_Q>
0

> <r_epik_Metal_State_Penalty>
  0.0000

> <b_epik_Metal_Only>
0

> <s_m_entry_id>
4395

> <s_canvas_Unique_SMILES_Stereo>
CNC(=O)NC

$$$$
Schrodinger_fragment_20
                    3D
 Structure written by MMmdl.
 17 16  0  0  1  0            999 V2000
    1.5745   -2.3430    0.0408 N   0  0  0  0  0  0
    2.7102   -1.6372    0.0437 C   0  0  0  0  0  0
    2.7106   -0.4031    0.0762 O   0  0  0  0  0  0
    3.8399   -2.3841    0.0345 N   0  0  0  0  0  0
    0.2340   -1.7715    0.0641 C   0  0  0  0  0  0
    5.1575   -1.7464    0.1150 C   0  0  0  0  0  0
    3.8557   -3.8458   -0.1222 C   0  0  0  0  0  0
    1.6657   -3.3492    0.0238 H   0  0  0  0  0  0
   -0.5152   -2.5634    0.0523 H   0  0  0  0  0  0
    0.0679   -1.1334   -0.8052 H   0  0  0  0  0  0
    0.0819   -1.1730    0.9636 H   0  0  0  0  0  0
    5.9260   -2.4304    0.4760 H   0  0  0  0  0  0
    5.1516   -0.8956    0.7989 H   0  0  0  0  0  0
    5.4602   -1.3845   -0.8682 H   0  0  0  0  0  0
    4.8629   -4.2387   -0.2639 H   0  0  0  0  0  0
    3.2753   -4.1542   -0.9935 H   0  0  0  0  0  0
    3.4367   -4.3311    0.7607 H   0  0  0  0  0  0
  1  2  1  0  0  0
  1  5  1  0  0  0
  1  8  1  0  0  0
  2  3  2  0  0  0
  2  4  1  0  0  0
  4  6  1  0  0  0
  4  7  1  0  0  0
  5  9  1  0  0  0
  5 10  1  0  0  0
  5 11  1  0  0  0
  6 12  1  0  0  0
  6 13  1  0  0  0
  6 14  1  0  0  0
  7 15  1  0  0  0
  7 16  1  0  0  0
  7 17  1  0  0  0
M  END
> <s_m_entry_name>
Schrodinger_fragment_20

> <i_m_number_of_atoms>
17

> <r_m_molecular_weight>
102.1371

> <s_m_molecular_formula>
C4H10N2O1

> <r_epik_Ionization_Penalty>
  0.0001

> <r_epik_Ionization_Penalty_Charging>
  0.0000

> <r_epik_Ionization_Penalty_Neutral>
  0.0001

> <r_epik_State_Penalty>
  0.0000

> <i_epik_Tot_Q>
0

> <r_epik_Metal_State_Penalty>
  0.0000

> <b_epik_Metal_Only>
0

> <s_m_entry_id>
4396

> <s_canvas_Unique_SMILES_Stereo>
CNC(=O)N(C)C

$$$$
Schrodinger_fragment_21
                    3D
 Structure written by MMmdl.
 20 19  0  0  1  0            999 V2000
    3.8358   -2.4861    0.0433 N   0  0  0  0  0  0
    2.6761   -1.7809    0.0170 C   0  0  0  0  0  0
    2.6714   -0.5437    0.0059 O   0  0  0  0  0  0
    1.5217   -2.4951    0.0033 N   0  0  0  0  0  0
    5.0811   -1.8410    0.4657 C   0  0  0  0  0  0
    0.2716   -1.8671   -0.4305 C   0  0  0  0  0  0
    1.3276   -3.7545    0.7338 C   0  0  0  0  0  0
    4.0394   -3.7568   -0.6645 C   0  0  0  0  0  0
    5.8347   -2.5769    0.7488 H   0  0  0  0  0  0
    4.9205   -1.1959    1.3316 H   0  0  0  0  0  0
    5.4868   -1.2294   -0.3413 H   0  0  0  0  0  0
   -0.4764   -2.6136   -0.7003 H   0  0  0  0  0  0
    0.4273   -1.2365   -1.3079 H   0  0  0  0  0  0
   -0.1388   -1.2442    0.3654 H   0  0  0  0  0  0
    0.3569   -3.7793    1.2307 H   0  0  0  0  0  0
    2.0795   -3.9018    1.5111 H   0  0  0  0  0  0
    1.3725   -4.6023    0.0498 H   0  0  0  0  0  0
    5.0103   -3.7832   -1.1609 H   0  0  0  0  0  0
    3.2886   -3.9237   -1.4390 H   0  0  0  0  0  0
    4.0008   -4.5926    0.0346 H   0  0  0  0  0  0
  1  2  1  0  0  0
  1  5  1  0  0  0
  1  8  1  0  0  0
  2  3  2  0  0  0
  2  4  1  0  0  0
  4  6  1  0  0  0
  4  7  1  0  0  0
  5  9  1  0  0  0
  5 10  1  0  0  0
  5 11  1  0  0  0
  6 12  1  0  0  0
  6 13  1  0  0  0
  6 14  1  0  0  0
  7 15  1  0  0  0
  7 16  1  0  0  0
  7 17  1  0  0  0
  8 18  1  0  0  0
  8 19  1  0  0  0
  8 20  1  0  0  0
M  END
> <s_m_entry_name>
Schrodinger_fragment_21

> <i_m_number_of_atoms>
20

> <r_m_molecular_weight>
116.16419

> <s_m_molecular_formula>
C5H12N2O1

> <r_epik_Ionization_Penalty>
  0.0001

> <r_epik_Ionization_Penalty_Charging>
  0.0000

> <r_epik_Ionization_Penalty_Neutral>
  0.0001

> <r_epik_State_Penalty>
  0.0000

> <i_epik_Tot_Q>
0

> <r_epik_Metal_State_Penalty>
  0.0000

> <b_epik_Metal_Only>
0

> <s_m_entry_id>
4397

> <s_canvas_Unique_SMILES_Stereo>
CN(C)C(=O)N(C)C

$$$$
Schrodinger_fragment_22
                    3D
 Structure written by MMmdl.
 11 10  0  0  1  0            999 V2000
   -2.1992   -1.6729   -0.1134 C   0  0  0  0  0  0
   -0.7828   -0.5389    0.0210 S   0  0  0  0  0  0
    0.6336   -1.6723    0.1595 C   0  0  0  0  0  0
   -0.9045    0.2106    1.2827 O   0  0  0  0  0  0
   -0.6611    0.2059   -1.2436 O   0  0  0  0  0  0
   -3.1135   -1.0900   -0.2026 H   0  0  0  0  0  0
   -2.2518   -2.2956    0.7769 H   0  0  0  0  0  0
   -2.0811   -2.2989   -0.9950 H   0  0  0  0  0  0
    1.5479   -1.0892    0.2465 H   0  0  0  0  0  0
    0.6862   -2.2984   -0.7284 H   0  0  0  0  0  0
    0.5155   -2.2951    1.0435 H   0  0  0  0  0  0
  1  2  1  0  0  0
  1  6  1  0  0  0
  1  7  1  0  0  0
  1  8  1  0  0  0
  2  3  1  0  0  0
  2  4  2  0  0  0
  2  5  2  0  0  0
  3  9  1  0  0  0
  3 10  1  0  0  0
  3 11  1  0  0  0
M  END
> <s_m_entry_name>
Schrodinger_fragment_22

> <i_m_number_of_atoms>
11

> <r_m_molecular_weight>
94.13292

> <s_m_molecular_formula>
C2H6O2S1

> <r_epik_Ionization_Penalty>
  0.0000

> <r_epik_Ionization_Penalty_Charging>
  0.0000

> <r_epik_Ionization_Penalty_Neutral>
  0.0000

> <r_epik_State_Penalty>
  0.0000

> <i_epik_Tot_Q>
0

> <r_epik_Metal_State_Penalty>
  0.0000

> <b_epik_Metal_Only>
0

> <s_m_entry_id>
4398

> <s_canvas_Unique_SMILES_Stereo>
CS(=O)(=O)C

$$$$
Schrodinger_fragment_23
                    3D
 Structure written by MMmdl.
 10  9  0  0  1  0            999 V2000
    0.0248   -2.0625    0.3101 C   0  0  0  0  0  0
    1.3083   -0.8879   -0.2105 S   0  0  0  0  0  0
    2.6324   -1.8983   -0.5325 N   0  0  0  0  0  0
    0.9046   -0.2801   -1.4871 O   0  0  0  0  0  0
    1.6734   -0.0455    0.9380 O   0  0  0  0  0  0
   -0.8841   -1.5117    0.5454 H   0  0  0  0  0  0
    0.3583   -2.6010    1.1946 H   0  0  0  0  0  0
   -0.1782   -2.7642   -0.4961 H   0  0  0  0  0  0
    3.4115   -1.6771    0.0895 H   0  0  0  0  0  0
    2.9031   -1.8320   -1.5149 H   0  0  0  0  0  0
  1  2  1  0  0  0
  1  6  1  0  0  0
  1  7  1  0  0  0
  1  8  1  0  0  0
  2  3  1  0  0  0
  2  4  2  0  0  0
  2  5  2  0  0  0
  3  9  1  0  0  0
  3 10  1  0  0  0
M  END
> <s_m_entry_name>
Schrodinger_fragment_23

> <i_m_number_of_atoms>
10

> <r_m_molecular_weight>
95.1205

> <s_m_molecular_formula>
C1H5N1O2S1

> <r_epik_Ionization_Penalty>
  0.0002

> <r_epik_Ionization_Penalty_Charging>
  0.0000

> <r_epik_Ionization_Penalty_Neutral>
  0.0002

> <r_epik_State_Penalty>
  0.0000

> <i_epik_Tot_Q>
0

> <r_epik_Metal_State_Penalty>
  0.0920

> <b_epik_Metal_Only>
0

> <s_m_entry_id>
4399

> <s_canvas_Unique_SMILES_Stereo>
CS(=O)(=O)N

$$$$
Schrodinger_fragment_23_a
                    3D
 Structure written by MMmdl.
  9  8  0  0  1  0            999 V2000
    0.1849   -2.0500    0.2117 C   0  0  0  0  0  0
    1.4268   -0.7750    0.0358 S   0  0  0  0  0  0
    2.7626   -1.6474    0.0069 N   0  5  0  0  0  0
    1.1771   -0.1133   -1.2512 O   0  0  0  0  0  0
    1.3598    0.0499    1.2491 O   0  0  0  0  0  0
   -0.7943   -1.5774    0.2585 H   0  0  0  0  0  0
    0.3706   -2.6045    1.1291 H   0  0  0  0  0  0
    0.2311   -2.7165   -0.6468 H   0  0  0  0  0  0
    2.9891   -1.8014   -0.9851 H   0  0  0  0  0  0
  1  2  1  0  0  0
  1  6  1  0  0  0
  1  7  1  0  0  0
  1  8  1  0  0  0
  2  3  1  0  0  0
  2  4  2  0  0  0
  2  5  2  0  0  0
  3  9  1  0  0  0
M  CHG  1   3  -1
M  END
> <s_m_entry_name>
Schrodinger_fragment_23

> <i_m_number_of_atoms>
10

> <r_m_molecular_weight>
95.1205

> <s_m_molecular_formula>
C1H5N1O2S1

> <r_epik_Ionization_Penalty>
  5.1501

> <r_epik_Ionization_Penalty_Charging>
  5.1501

> <r_epik_Ionization_Penalty_Neutral>
  0.0000

> <r_epik_State_Penalty>
  5.1500

> <i_epik_Tot_Q>
-1

> <r_epik_Metal_State_Penalty>
  1.1492

> <b_epik_Metal_Only>
1

> <s_m_entry_id>
4400

> <s_canvas_Unique_SMILES_Stereo>
CS(=O)(=O)[NH-]

$$$$
Schrodinger_fragment_24
                    3D
 Structure written by MMmdl.
 13 12  0  0  1  0            999 V2000
   -0.0878   -2.1097    0.1945 C   0  0  0  0  0  0
    1.2779   -0.9429   -0.0568 S   0  0  0  0  0  0
    2.6320   -1.9709   -0.2366 N   0  0  0  0  0  0
    1.0947   -0.2394   -1.3348 O   0  0  0  0  0  0
    1.4752   -0.1785    1.1843 O   0  0  0  0  0  0
    3.9568   -1.3879   -0.0093 C   0  0  0  0  0  0
   -1.0091   -1.5490    0.3402 H   0  0  0  0  0  0
    0.1096   -2.7148    1.0768 H   0  0  0  0  0  0
   -0.1903   -2.7499   -0.6788 H   0  0  0  0  0  0
    2.5954   -2.3976   -1.1663 H   0  0  0  0  0  0
    4.7338   -2.1333   -0.1798 H   0  0  0  0  0  0
    4.0452   -1.0246    1.0153 H   0  0  0  0  0  0
    4.1243   -0.5507   -0.6885 H   0  0  0  0  0  0
  1  2  1  0  0  0
  1  7  1  0  0  0
  1  8  1  0  0  0
  1  9  1  0  0  0
  2  3  1  0  0  0
  2  4  2  0  0  0
  2  5  2  0  0  0
  3  6  1  0  0  0
  3 10  1  0  0  0
  6 11  1  0  0  0
  6 12  1  0  0  0
  6 13  1  0  0  0
M  END
> <s_m_entry_name>
Schrodinger_fragment_24

> <i_m_number_of_atoms>
13

> <r_m_molecular_weight>
109.14759

> <s_m_molecular_formula>
C2H7N1O2S1

> <r_epik_Ionization_Penalty>
  0.0000

> <r_epik_Ionization_Penalty_Charging>
  0.0000

> <r_epik_Ionization_Penalty_Neutral>
  0.0000

> <r_epik_State_Penalty>
  0.0000

> <i_epik_Tot_Q>
0

> <r_epik_Metal_State_Penalty>
  0.0081

> <b_epik_Metal_Only>
0

> <s_m_entry_id>
4401

> <s_canvas_Unique_SMILES_Stereo>
CNS(=O)(=O)C

$$$$
Schrodinger_fragment_24_a
                    3D
 Structure written by MMmdl.
 12 11  0  0  1  0            999 V2000
   -0.0231   -2.0720    0.0274 C   0  0  0  0  0  0
    1.3301   -0.8975    0.0802 S   0  0  0  0  0  0
    2.5701   -1.8773   -0.1772 N   0  5  0  0  0  0
    1.0879    0.0304   -1.0340 O   0  0  0  0  0  0
    1.3106   -0.3374    1.4392 O   0  0  0  0  0  0
    3.9096   -1.3209   -0.2159 C   0  0  0  0  0  0
   -0.9567   -1.5371    0.1912 H   0  0  0  0  0  0
    0.1181   -2.8149    0.8097 H   0  0  0  0  0  0
   -0.0404   -2.5532   -0.9484 H   0  0  0  0  0  0
    4.6439   -2.1054   -0.3975 H   0  0  0  0  0  0
    4.1953   -0.8476    0.7216 H   0  0  0  0  0  0
    4.0390   -0.5923   -1.0140 H   0  0  0  0  0  0
  1  2  1  0  0  0
  1  7  1  0  0  0
  1  8  1  0  0  0
  1  9  1  0  0  0
  2  3  1  0  0  0
  2  4  2  0  0  0
  2  5  2  0  0  0
  3  6  1  0  0  0
  6 10  1  0  0  0
  6 11  1  0  0  0
  6 12  1  0  0  0
M  CHG  1   3  -1
M  END
> <s_m_entry_name>
Schrodinger_fragment_24

> <i_m_number_of_atoms>
13

> <r_m_molecular_weight>
109.14759

> <s_m_molecular_formula>
C2H7N1O2S1

> <r_epik_Ionization_Penalty>
  6.6303

> <r_epik_Ionization_Penalty_Charging>
  6.6303

> <r_epik_Ionization_Penalty_Neutral>
  0.0000

> <r_epik_State_Penalty>
  6.6302

> <i_epik_Tot_Q>
-1

> <r_epik_Metal_State_Penalty>
  2.5456

> <b_epik_Metal_Only>
1

> <s_m_entry_id>
4402

> <s_canvas_Unique_SMILES_Stereo>
C[N-]S(=O)(=O)C

$$$$
Schrodinger_fragment_25
                    3D
 Structure written by MMmdl.
 16 15  0  0  1  0            999 V2000
   -0.1436   -2.0265   -0.3263 C   0  0  0  0  0  0
    1.2662   -1.0703    0.2979 S   0  0  0  0  0  0
    2.6337   -1.9964   -0.2045 N   0  0  0  0  0  0
    1.3133    0.2048   -0.4335 O   0  0  0  0  0  0
    1.2504   -1.0708    1.7683 O   0  0  0  0  0  0
    3.9024   -1.2655   -0.3455 C   0  0  0  0  0  0
    2.8007   -3.3244    0.4068 C   0  0  0  0  0  0
   -1.0555   -1.4593   -0.1526 H   0  0  0  0  0  0
   -0.2131   -2.9761    0.1975 H   0  0  0  0  0  0
   -0.0213   -2.1958   -1.3936 H   0  0  0  0  0  0
    4.6719   -1.8945   -0.7942 H   0  0  0  0  0  0
    4.2545   -0.9230    0.6286 H   0  0  0  0  0  0
    3.7735   -0.3926   -0.9863 H   0  0  0  0  0  0
    3.5967   -3.8850   -0.0845 H   0  0  0  0  0  0
    1.8856   -3.9091    0.3212 H   0  0  0  0  0  0
    3.0450   -3.2293    1.4658 H   0  0  0  0  0  0
  1  2  1  0  0  0
  1  8  1  0  0  0
  1  9  1  0  0  0
  1 10  1  0  0  0
  2  3  1  0  0  0
  2  4  2  0  0  0
  2  5  2  0  0  0
  3  6  1  0  0  0
  3  7  1  0  0  0
  6 11  1  0  0  0
  6 12  1  0  0  0
  6 13  1  0  0  0
  7 14  1  0  0  0
  7 15  1  0  0  0
  7 16  1  0  0  0
M  END
> <s_m_entry_name>
Schrodinger_fragment_25

> <i_m_number_of_atoms>
16

> <r_m_molecular_weight>
123.17468

> <s_m_molecular_formula>
C3H9N1O2S1

> <r_epik_Ionization_Penalty>
  0.0000

> <r_epik_Ionization_Penalty_Charging>
  0.0000

> <r_epik_Ionization_Penalty_Neutral>
  0.0000

> <r_epik_State_Penalty>
  0.0000

> <i_epik_Tot_Q>
0

> <r_epik_Metal_State_Penalty>
  0.0000

> <b_epik_Metal_Only>
0

> <s_m_entry_id>
4403

> <s_canvas_Unique_SMILES_Stereo>
CN(C)S(=O)(=O)C

$$$$
Schrodinger_fragment_26
                    3D
 Structure written by MMmdl.
 19 20  0  0  1  0            999 V2000
    0.8913   -2.7612   -1.1032 C   0  0  0  0  0  0
    2.0877   -2.1304   -0.3644 C   0  0  0  0  0  0
    3.3225   -3.0334   -0.5511 C   0  0  0  0  0  0
    2.9813   -4.2308    0.3608 C   0  0  0  0  0  0
    0.5501   -3.9585   -0.1914 C   0  0  0  0  0  0
    1.6062   -3.8202    0.9225 C   0  0  2  0  0  0
    0.0532   -2.0649   -1.1580 H   0  0  0  0  0  0
    1.1421   -3.0626   -2.1210 H   0  0  0  0  0  0
    2.2628   -1.0843   -0.6198 H   0  0  0  0  0  0
    3.4729   -3.3236   -1.5917 H   0  0  0  0  0  0
    4.2294   -2.5326   -0.2095 H   0  0  0  0  0  0
    2.9447   -5.1773   -0.1799 H   0  0  0  0  0  0
    3.7170   -4.3309    1.1600 H   0  0  0  0  0  0
   -0.4592   -3.8632    0.2116 H   0  0  0  0  0  0
    0.6139   -4.9163   -0.7093 H   0  0  0  0  0  0
    1.3386   -4.3278    1.8504 H   0  0  0  0  0  0
    1.7427   -2.3683    1.0370 N   0  3  0  0  0  0
    2.4838   -2.1018    1.6643 H   0  0  0  0  0  0
    0.8793   -1.9222    1.2999 H   0  0  0  0  0  0
  1  2  1  0  0  0
  1  5  1  0  0  0
  1  7  1  0  0  0
  1  8  1  0  0  0
  2  3  1  0  0  0
  2  9  1  0  0  0
  2 17  1  0  0  0
  3  4  1  0  0  0
  3 10  1  0  0  0
  3 11  1  0  0  0
  4  6  1  0  0  0
  4 12  1  0  0  0
  4 13  1  0  0  0
  5  6  1  0  0  0
  5 14  1  0  0  0
  5 15  1  0  0  0
  6 16  1  0  0  0
  6 17  1  0  0  0
 17 18  1  0  0  0
 17 19  1  0  0  0
M  CHG  1  17   1
M  END
> <s_m_entry_name>
Schrodinger_fragment_26

> <i_m_number_of_atoms>
19

> <r_m_molecular_weight>
98.16924

> <s_m_molecular_formula>
C6H12N1

> <r_epik_Ionization_Penalty>
  0.0004

> <r_epik_Ionization_Penalty_Charging>
  0.0004

> <r_epik_Ionization_Penalty_Neutral>
  0.0000

> <r_epik_State_Penalty>
  0.0000

> <i_epik_Tot_Q>
1

> <r_epik_Metal_State_Penalty>
  0.0000

> <b_epik_Metal_Only>
0

> <s_m_entry_id>
4404

> <s_canvas_Unique_SMILES_Stereo>
C12CCC([NH2+]2)CC1

$$$$
Schrodinger_fragment_27
                    3D
 Structure written by MMmdl.
 22 23  0  0  1  0            999 V2000
    0.6012   -3.8497    0.1213 C   0  0  0  0  0  0
    2.9376   -4.1004   -0.5371 C   0  0  0  0  0  0
    1.0060   -2.9526    1.3235 C   0  0  0  0  0  0
    3.3979   -3.2093    0.6494 C   0  0  0  0  0  0
    2.2986   -2.1765    0.9851 C   0  0  0  0  0  0
    1.6018   -2.2738   -1.4504 C   0  0  0  0  0  0
    2.0303   -1.3393   -0.2856 C   0  0  0  0  0  0
    0.5565   -4.8966    0.4248 H   0  0  0  0  0  0
   -0.3989   -3.5901   -0.2285 H   0  0  0  0  0  0
    3.6414   -4.0236   -1.3671 H   0  0  0  0  0  0
    2.9257   -5.1508   -0.2429 H   0  0  0  0  0  0
    0.1982   -2.2592    1.5618 H   0  0  0  0  0  0
    1.1529   -3.5646    2.2146 H   0  0  0  0  0  0
    3.6154   -3.8288    1.5206 H   0  0  0  0  0  0
    4.3305   -2.7026    0.3974 H   0  0  0  0  0  0
    2.6014   -1.5390    1.8171 H   0  0  0  0  0  0
    0.6157   -1.9920   -1.8223 H   0  0  0  0  0  0
    2.2868   -2.1713   -2.2932 H   0  0  0  0  0  0
    1.2529   -0.5981   -0.0948 H   0  0  0  0  0  0
    2.9226   -0.7773   -0.5653 H   0  0  0  0  0  0
    1.5802   -3.6887   -0.9885 N   0  3  0  0  0  0
    1.2998   -4.2789   -1.7587 H   0  0  0  0  0  0
  1  3  1  0  0  0
  1  8  1  0  0  0
  1  9  1  0  0  0
  1 21  1  0  0  0
  2  4  1  0  0  0
  2 10  1  0  0  0
  2 11  1  0  0  0
  2 21  1  0  0  0
  3  5  1  0  0  0
  3 12  1  0  0  0
  3 13  1  0  0  0
  4  5  1  0  0  0
  4 14  1  0  0  0
  4 15  1  0  0  0
  5  7  1  0  0  0
  5 16  1  0  0  0
  6  7  1  0  0  0
  6 17  1  0  0  0
  6 18  1  0  0  0
  6 21  1  0  0  0
  7 19  1  0  0  0
  7 20  1  0  0  0
 21 22  1  0  0  0
M  CHG  1  21   1
M  END
> <s_m_entry_name>
Schrodinger_fragment_27

> <i_m_number_of_atoms>
22

> <r_m_molecular_weight>
112.19633

> <s_m_molecular_formula>
C7H14N1

> <r_epik_Ionization_Penalty>
  0.0003

> <r_epik_Ionization_Penalty_Charging>
  0.0003

> <r_epik_Ionization_Penalty_Neutral>
  0.0000

> <r_epik_State_Penalty>
  0.0000

> <i_epik_Tot_Q>
1

> <r_epik_Metal_State_Penalty>
  0.0000

> <b_epik_Metal_Only>
0

> <s_m_entry_id>
4405

> <s_canvas_Unique_SMILES_Stereo>
C12CC[NH+](CC1)CC2

$$$$
Schrodinger_fragment_28
                    3D
 Structure written by MMmdl.
 20 21  0  0  1  0            999 V2000
    0.5982   -3.7324   -0.1938 C   0  0  0  0  0  0
    1.7024   -3.7407    0.8976 C   0  0  1  0  0  0
    2.9796   -4.0480    0.2357 N   0  0  0  0  0  0
    1.0046   -2.7557   -1.3372 C   0  0  0  0  0  0
    3.3749   -3.2340   -0.7541 C   0  0  0  0  0  0
    2.3711   -2.0946   -1.0094 C   0  0  2  0  0  0
    1.8031   -2.2993    1.4658 C   0  0  0  0  0  0
    2.2125   -1.3188    0.3267 C   0  0  0  0  0  0
    4.4169   -3.3685   -1.3944 O   0  0  0  0  0  0
    0.4549   -4.7381   -0.5921 H   0  0  0  0  0  0
   -0.3597   -3.4371    0.2372 H   0  0  0  0  0  0
    1.4848   -4.4667    1.6826 H   0  0  0  0  0  0
    3.5322   -4.8453    0.5231 H   0  0  0  0  0  0
    1.0666   -3.2931   -2.2847 H   0  0  0  0  0  0
    0.2380   -1.9915   -1.4694 H   0  0  0  0  0  0
    2.7088   -1.4434   -1.8169 H   0  0  0  0  0  0
    0.8512   -1.9969    1.9052 H   0  0  0  0  0  0
    2.5357   -2.2633    2.2736 H   0  0  0  0  0  0
    3.1475   -0.8177    0.5817 H   0  0  0  0  0  0
    1.4642   -0.5328    0.2198 H   0  0  0  0  0  0
  1  2  1  0  0  0
  1  4  1  0  0  0
  1 10  1  0  0  0
  1 11  1  0  0  0
  2  3  1  0  0  0
  2  7  1  0  0  0
  2 12  1  0  0  0
  3  5  1  0  0  0
  3 13  1  0  0  0
  4  6  1  0  0  0
  4 14  1  0  0  0
  4 15  1  0  0  0
  5  6  1  0  0  0
  5  9  2  0  0  0
  6  8  1  0  0  0
  6 16  1  0  0  0
  7  8  1  0  0  0
  7 17  1  0  0  0
  7 18  1  0  0  0
  8 19  1  0  0  0
  8 20  1  0  0  0
M  END
> <s_m_entry_name>
Schrodinger_fragment_28

> <i_m_number_of_atoms>
20

> <r_m_molecular_weight>
125.17182

> <s_m_molecular_formula>
C7H11N1O1

> <r_epik_Ionization_Penalty>
  0.0000

> <r_epik_Ionization_Penalty_Charging>
  0.0000

> <r_epik_Ionization_Penalty_Neutral>
  0.0000

> <r_epik_State_Penalty>
  0.0000

> <i_epik_Tot_Q>
0

> <r_epik_Metal_State_Penalty>
  0.0000

> <b_epik_Metal_Only>
0

> <s_m_entry_id>
4406

> <s_canvas_Unique_SMILES_Stereo>
C12C(=O)NC(CC1)CC2

$$$$
Schrodinger_fragment_29
                    3D
 Structure written by MMmdl.
 23 24  0  0  1  0            999 V2000
    0.5618   -3.6706    0.3605 C   0  0  0  0  0  0
    1.6750   -3.9327   -0.6888 C   0  0  2  0  0  0
    2.9435   -4.1322    0.0391 N   0  0  0  0  0  0
    0.9784   -2.4800    1.2718 C   0  0  0  0  0  0
    3.3452   -3.1205    0.8426 C   0  0  0  0  0  0
    2.3623   -1.9346    0.8290 C   0  0  1  0  0  0
    1.8191   -2.6505   -1.5516 C   0  0  0  0  0  0
    2.2377   -1.4586   -0.6430 C   0  0  0  0  0  0
    4.3742   -3.1108    1.5238 O   0  0  0  0  0  0
    3.6655   -5.3860   -0.1562 C   0  0  0  0  0  0
   -0.3864   -3.4574   -0.1354 H   0  0  0  0  0  0
    0.3965   -4.5650    0.9634 H   0  0  0  0  0  0
    1.4296   -4.7955   -1.3105 H   0  0  0  0  0  0
    0.2288   -1.6893    1.2239 H   0  0  0  0  0  0
    1.0167   -2.8003    2.3143 H   0  0  0  0  0  0
    2.7059   -1.1322    1.4830 H   0  0  0  0  0  0
    2.5642   -2.8063   -2.3335 H   0  0  0  0  0  0
    0.8815   -2.4286   -2.0635 H   0  0  0  0  0  0
    1.5061   -0.6532   -0.7180 H   0  0  0  0  0  0
    3.1862   -1.0408   -0.9844 H   0  0  0  0  0  0
    4.5816   -5.4389    0.4337 H   0  0  0  0  0  0
    3.9375   -5.5029   -1.2054 H   0  0  0  0  0  0
    3.0369   -6.2298    0.1292 H   0  0  0  0  0  0
  1  2  1  0  0  0
  1  4  1  0  0  0
  1 11  1  0  0  0
  1 12  1  0  0  0
  2  3  1  0  0  0
  2  7  1  0  0  0
  2 13  1  0  0  0
  3  5  1  0  0  0
  3 10  1  0  0  0
  4  6  1  0  0  0
  4 14  1  0  0  0
  4 15  1  0  0  0
  5  6  1  0  0  0
  5  9  2  0  0  0
  6  8  1  0  0  0
  6 16  1  0  0  0
  7  8  1  0  0  0
  7 17  1  0  0  0
  7 18  1  0  0  0
  8 19  1  0  0  0
  8 20  1  0  0  0
 10 21  1  0  0  0
 10 22  1  0  0  0
 10 23  1  0  0  0
M  END
> <s_m_entry_name>
Schrodinger_fragment_29

> <i_m_number_of_atoms>
23

> <r_m_molecular_weight>
139.19891

> <s_m_molecular_formula>
C8H13N1O1

> <r_epik_Ionization_Penalty>
  0.0000

> <r_epik_Ionization_Penalty_Charging>
  0.0000

> <r_epik_Ionization_Penalty_Neutral>
  0.0000

> <r_epik_State_Penalty>
  0.0000

> <i_epik_Tot_Q>
0

> <r_epik_Metal_State_Penalty>
  0.0000

> <b_epik_Metal_Only>
0

> <s_m_entry_id>
4407

> <s_canvas_Unique_SMILES_Stereo>
C12C(=O)N(C)C(CC1)CC2

$$$$
Schrodinger_fragment_30
                    3D
 Structure written by MMmdl.
 10 10  0  0  1  0            999 V2000
   -3.1856    0.3034    0.0174 C   0  0  0  0  0  0
   -3.1107   -1.2240    0.0211 C   0  0  0  0  0  0
   -1.6489   -1.1074    0.0265 N   0  0  0  0  0  0
   -1.6562    0.2603    0.0234 C   0  0  0  0  0  0
   -0.7455    1.0620    0.0250 O   0  0  0  0  0  0
   -3.6381    0.7124   -0.8860 H   0  0  0  0  0  0
   -3.6451    0.7165    0.9153 H   0  0  0  0  0  0
   -3.5262   -1.6804    0.9220 H   0  0  0  0  0  0
   -3.5193   -1.6845   -0.8808 H   0  0  0  0  0  0
   -0.8944   -1.7825    0.0309 H   0  0  0  0  0  0
  1  2  1  0  0  0
  1  4  1  0  0  0
  1  6  1  0  0  0
  1  7  1  0  0  0
  2  3  1  0  0  0
  2  8  1  0  0  0
  2  9  1  0  0  0
  3  4  1  0  0  0
  3 10  1  0  0  0
  4  5  2  0  0  0
M  END
> <s_m_entry_name>
Schrodinger_fragment_30

> <i_m_number_of_atoms>
10

> <r_m_molecular_weight>
71.0794

> <s_m_molecular_formula>
C3H5N1O1

> <r_epik_Ionization_Penalty>
  0.0000

> <r_epik_Ionization_Penalty_Charging>
  0.0000

> <r_epik_Ionization_Penalty_Neutral>
  0.0000

> <r_epik_State_Penalty>
  0.0000

> <i_epik_Tot_Q>
0

> <r_epik_Metal_State_Penalty>
  0.0000

> <b_epik_Metal_Only>
0

> <s_m_entry_id>
4408

> <s_canvas_Unique_SMILES_Stereo>
O=C1CCN1

$$$$
Schrodinger_fragment_31
                    3D
 Structure written by MMmdl.
 13 13  0  0  1  0            999 V2000
    0.0435   -1.1745    0.0431 C   0  0  0  0  0  0
    0.1151   -2.6927   -0.1241 C   0  0  0  0  0  0
    1.5707   -2.6003    0.0348 N   0  0  0  0  0  0
    1.5643   -1.2365    0.1909 C   0  0  0  0  0  0
    2.4706   -0.4504    0.3737 O   0  0  0  0  0  0
    2.6343   -3.5924    0.0291 C   0  0  0  0  0  0
   -0.3188   -0.6581   -0.8457 H   0  0  0  0  0  0
   -0.5002   -0.8628    0.9349 H   0  0  0  0  0  0
   -0.3877   -3.2439    0.6731 H   0  0  0  0  0  0
   -0.2062   -3.0391   -1.1085 H   0  0  0  0  0  0
    3.6083   -3.1253    0.1820 H   0  0  0  0  0  0
    2.6567   -4.1217   -0.9238 H   0  0  0  0  0  0
    2.4787   -4.3226    0.8236 H   0  0  0  0  0  0
  1  2  1  0  0  0
  1  4  1  0  0  0
  1  7  1  0  0  0
  1  8  1  0  0  0
  2  3  1  0  0  0
  2  9  1  0  0  0
  2 10  1  0  0  0
  3  4  1  0  0  0
  3  6  1  0  0  0
  4  5  2  0  0  0
  6 11  1  0  0  0
  6 12  1  0  0  0
  6 13  1  0  0  0
M  END
> <s_m_entry_name>
Schrodinger_fragment_31

> <i_m_number_of_atoms>
13

> <r_m_molecular_weight>
85.10649

> <s_m_molecular_formula>
C4H7N1O1

> <r_epik_Ionization_Penalty>
  0.0000

> <r_epik_Ionization_Penalty_Charging>
  0.0000

> <r_epik_Ionization_Penalty_Neutral>
  0.0000

> <r_epik_State_Penalty>
  0.0000

> <i_epik_Tot_Q>
0

> <r_epik_Metal_State_Penalty>
  0.0000

> <b_epik_Metal_Only>
0

> <s_m_entry_id>
4409

> <s_canvas_Unique_SMILES_Stereo>
CN1CCC1=O

$$$$
Schrodinger_fragment_32
                    3D
 Structure written by MMmdl.
 13 13  0  0  1  0            999 V2000
    0.0736   -0.4100   -0.0595 C   0  0  0  0  0  0
    0.0941   -1.9316    0.1491 C   0  0  0  0  0  0
    1.5616   -2.3624   -0.0076 C   0  0  0  0  0  0
    2.3107   -1.1195   -0.0199 N   0  0  0  0  0  0
    1.5441   -0.0364   -0.0574 C   0  0  0  0  0  0
    1.9541    1.1228   -0.0867 O   0  0  0  0  0  0
   -0.3698   -0.1425   -1.0192 H   0  0  0  0  0  0
   -0.4672    0.1079    0.7332 H   0  0  0  0  0  0
   -0.2647   -2.1763    1.1499 H   0  0  0  0  0  0
   -0.5520   -2.4471   -0.5626 H   0  0  0  0  0  0
    1.8854   -3.0105    0.8082 H   0  0  0  0  0  0
    1.7197   -2.8943   -0.9473 H   0  0  0  0  0  0
    3.3230   -1.0935   -0.0140 H   0  0  0  0  0  0
  1  2  1  0  0  0
  1  5  1  0  0  0
  1  7  1  0  0  0
  1  8  1  0  0  0
  2  3  1  0  0  0
  2  9  1  0  0  0
  2 10  1  0  0  0
  3  4  1  0  0  0
  3 11  1  0  0  0
  3 12  1  0  0  0
  4  5  1  0  0  0
  4 13  1  0  0  0
  5  6  2  0  0  0
M  END
> <s_m_entry_name>
Schrodinger_fragment_32

> <i_m_number_of_atoms>
13

> <r_m_molecular_weight>
85.10649

> <s_m_molecular_formula>
C4H7N1O1

> <r_epik_Ionization_Penalty>
  0.0000

> <r_epik_Ionization_Penalty_Charging>
  0.0000

> <r_epik_Ionization_Penalty_Neutral>
  0.0000

> <r_epik_State_Penalty>
  0.0000

> <i_epik_Tot_Q>
0

> <r_epik_Metal_State_Penalty>
  0.0000

> <b_epik_Metal_Only>
0

> <s_m_entry_id>
4410

> <s_canvas_Unique_SMILES_Stereo>
O=C1CCCN1

$$$$
Schrodinger_fragment_33
                    3D
 Structure written by MMmdl.
 16 16  0  0  1  0            999 V2000
    0.0787   -2.0001   -0.0420 C   0  0  0  0  0  0
    0.0962   -3.5198    0.1681 C   0  0  0  0  0  0
    1.5581   -3.9530   -0.0207 C   0  0  0  0  0  0
    2.3208   -2.7155   -0.0080 N   0  0  0  0  0  0
    1.5490   -1.6242   -0.0281 C   0  0  0  0  0  0
    1.9451   -0.4560   -0.0348 O   0  0  0  0  0  0
    3.7780   -2.7300    0.0088 C   0  0  0  0  0  0
   -0.3529   -1.7345   -1.0073 H   0  0  0  0  0  0
   -0.4705   -1.4805    0.7435 H   0  0  0  0  0  0
   -0.2384   -3.7585    1.1788 H   0  0  0  0  0  0
   -0.5691   -4.0349   -0.5259 H   0  0  0  0  0  0
    1.8836   -4.6307    0.7701 H   0  0  0  0  0  0
    1.6977   -4.4553   -0.9793 H   0  0  0  0  0  0
    4.1765   -2.1842   -0.8474 H   0  0  0  0  0  0
    4.1647   -3.7488   -0.0304 H   0  0  0  0  0  0
    4.1532   -2.2594    0.9183 H   0  0  0  0  0  0
  1  2  1  0  0  0
  1  5  1  0  0  0
  1  8  1  0  0  0
  1  9  1  0  0  0
  2  3  1  0  0  0
  2 10  1  0  0  0
  2 11  1  0  0  0
  3  4  1  0  0  0
  3 12  1  0  0  0
  3 13  1  0  0  0
  4  5  1  0  0  0
  4  7  1  0  0  0
  5  6  2  0  0  0
  7 14  1  0  0  0
  7 15  1  0  0  0
  7 16  1  0  0  0
M  END
> <s_m_entry_name>
Schrodinger_fragment_33

> <i_m_number_of_atoms>
16

> <r_m_molecular_weight>
99.13358

> <s_m_molecular_formula>
C5H9N1O1

> <r_epik_Ionization_Penalty>
  0.0000

> <r_epik_Ionization_Penalty_Charging>
  0.0000

> <r_epik_Ionization_Penalty_Neutral>
  0.0000

> <r_epik_State_Penalty>
  0.0000

> <i_epik_Tot_Q>
0

> <r_epik_Metal_State_Penalty>
  0.0000

> <b_epik_Metal_Only>
0

> <s_m_entry_id>
4411

> <s_canvas_Unique_SMILES_Stereo>
CN1CCCC1=O

$$$$
Schrodinger_fragment_34
                    3D
 Structure written by MMmdl.
 12 12  0  0  1  0            999 V2000
    0.0736   -3.5863    0.0229 C   0  0  0  0  0  0
    0.0607   -2.0487    0.0244 C   0  0  0  0  0  0
    1.5423   -1.6989    0.0242 C   0  0  0  0  0  0
    2.2843   -2.7990    0.0228 N   0  0  0  0  0  0
    1.5607   -3.9113    0.0220 C   0  0  0  0  0  0
    2.0086   -5.0603    0.0207 O   0  0  0  0  0  0
    1.9710   -0.5426    0.0251 O   0  0  0  0  0  0
   -0.4060   -3.9998    0.9102 H   0  0  0  0  0  0
   -0.4066   -3.9981   -0.8648 H   0  0  0  0  0  0
   -0.4263   -1.6433   -0.8625 H   0  0  0  0  0  0
   -0.4256   -1.6450    0.9124 H   0  0  0  0  0  0
    3.2918   -2.7906    0.0225 H   0  0  0  0  0  0
  1  2  1  0  0  0
  1  5  1  0  0  0
  1  8  1  0  0  0
  1  9  1  0  0  0
  2  3  1  0  0  0
  2 10  1  0  0  0
  2 11  1  0  0  0
  3  4  1  0  0  0
  3  7  2  0  0  0
  4  5  1  0  0  0
  4 12  1  0  0  0
  5  6  2  0  0  0
M  END
> <s_m_entry_name>
Schrodinger_fragment_34

> <i_m_number_of_atoms>
12

> <r_m_molecular_weight>
99.08995

> <s_m_molecular_formula>
C4H5N1O2

> <r_epik_Ionization_Penalty>
  0.0037

> <r_epik_Ionization_Penalty_Charging>
  0.0000

> <r_epik_Ionization_Penalty_Neutral>
  0.0037

> <r_epik_State_Penalty>
  0.0000

> <i_epik_Tot_Q>
0

> <r_epik_Metal_State_Penalty>
  1.1786

> <b_epik_Metal_Only>
0

> <s_m_entry_id>
4412

> <s_canvas_Unique_SMILES_Stereo>
O=C1CCC(=O)N1

$$$$
Schrodinger_fragment_34_a
                    3D
 Structure written by MMmdl.
 11 11  0  0  1  0            999 V2000
    0.0767   -3.5826    0.0229 C   0  0  0  0  0  0
    0.0702   -2.0565    0.0244 C   0  0  0  0  0  0
    1.5449   -1.6897    0.0242 C   0  0  0  0  0  0
    2.2872   -2.8102    0.0228 N   0  5  0  0  0  0
    1.5544   -3.9370    0.0220 C   0  0  0  0  0  0
    1.9507   -5.1030    0.0207 O   0  0  0  0  0  0
    1.9314   -0.5204    0.0252 O   0  0  0  0  0  0
   -0.4138   -3.9878    0.9087 H   0  0  0  0  0  0
   -0.4145   -3.9860   -0.8633 H   0  0  0  0  0  0
   -0.4243   -1.6555   -0.8610 H   0  0  0  0  0  0
   -0.4237   -1.6572    0.9109 H   0  0  0  0  0  0
  1  2  1  0  0  0
  1  5  1  0  0  0
  1  8  1  0  0  0
  1  9  1  0  0  0
  2  3  1  0  0  0
  2 10  1  0  0  0
  2 11  1  0  0  0
  3  4  1  0  0  0
  3  7  2  0  0  0
  4  5  1  0  0  0
  5  6  2  0  0  0
M  CHG  1   4  -1
M  END
> <s_m_entry_name>
Schrodinger_fragment_34

> <i_m_number_of_atoms>
12

> <r_m_molecular_weight>
99.08995

> <s_m_molecular_formula>
C4H5N1O2

> <r_epik_Ionization_Penalty>
  3.0051

> <r_epik_Ionization_Penalty_Charging>
  3.0051

> <r_epik_Ionization_Penalty_Neutral>
  0.0000

> <r_epik_State_Penalty>
  3.0013

> <i_epik_Tot_Q>
-1

> <r_epik_Metal_State_Penalty>
  0.0872

> <b_epik_Metal_Only>
1

> <s_m_entry_id>
4413

> <s_canvas_Unique_SMILES_Stereo>
O=C1CCC([N-]1)=O

$$$$
Schrodinger_fragment_35
                    3D
 Structure written by MMmdl.
 15 15  0  0  1  0            999 V2000
    0.0659   -2.0511    0.0755 C   0  0  0  0  0  0
    0.0685   -3.5810   -0.0205 C   0  0  0  0  0  0
    1.5515   -3.9164   -0.0447 C   0  0  0  0  0  0
    2.3030   -2.8117    0.0228 N   0  0  0  0  0  0
    1.5478   -1.7086    0.0939 C   0  0  0  0  0  0
    1.9633   -0.5473    0.1662 O   0  0  0  0  0  0
    1.9757   -5.0745   -0.1179 O   0  0  0  0  0  0
    3.7680   -2.8287    0.0190 C   0  0  0  0  0  0
   -0.4191   -1.5884   -0.7838 H   0  0  0  0  0  0
   -0.4155   -1.6995    0.9878 H   0  0  0  0  0  0
   -0.4111   -4.0458    0.8408 H   0  0  0  0  0  0
   -0.4149   -3.9347   -0.9310 H   0  0  0  0  0  0
    4.1995   -1.8278    0.0681 H   0  0  0  0  0  0
    4.1410   -3.3043   -0.8891 H   0  0  0  0  0  0
    4.1439   -3.3926    0.8739 H   0  0  0  0  0  0
  1  2  1  0  0  0
  1  5  1  0  0  0
  1  9  1  0  0  0
  1 10  1  0  0  0
  2  3  1  0  0  0
  2 11  1  0  0  0
  2 12  1  0  0  0
  3  4  1  0  0  0
  3  7  2  0  0  0
  4  5  1  0  0  0
  4  8  1  0  0  0
  5  6  2  0  0  0
  8 13  1  0  0  0
  8 14  1  0  0  0
  8 15  1  0  0  0
M  END
> <s_m_entry_name>
Schrodinger_fragment_35

> <i_m_number_of_atoms>
15

> <r_m_molecular_weight>
113.11704

> <s_m_molecular_formula>
C5H7N1O2

> <r_epik_Ionization_Penalty>
  0.0000

> <r_epik_Ionization_Penalty_Charging>
  0.0000

> <r_epik_Ionization_Penalty_Neutral>
  0.0000

> <r_epik_State_Penalty>
  0.0000

> <i_epik_Tot_Q>
0

> <r_epik_Metal_State_Penalty>
  0.0000

> <b_epik_Metal_Only>
0

> <s_m_entry_id>
4414

> <s_canvas_Unique_SMILES_Stereo>
CN1C(=O)CCC1=O

$$$$
Schrodinger_fragment_36
                    3D
 Structure written by MMmdl.
 10 10  0  0  1  0            999 V2000
    0.1400   -3.5059    0.0220 C   0  0  0  0  0  0
    0.1186   -2.1694    0.0201 C   0  0  0  0  0  0
    1.4816   -1.7016    0.0202 C   0  0  0  0  0  0
    2.2314   -2.8039    0.0222 N   0  0  0  0  0  0
    1.5173   -3.9297    0.0234 C   0  0  0  0  0  0
    1.9727   -5.0757    0.0253 O   0  0  0  0  0  0
    1.9001   -0.5416    0.0188 O   0  0  0  0  0  0
   -0.7192   -4.1587    0.0224 H   0  0  0  0  0  0
   -0.7611   -1.5444    0.0187 H   0  0  0  0  0  0
    3.2388   -2.7878    0.0228 H   0  0  0  0  0  0
  1  2  2  0  0  0
  1  5  1  0  0  0
  1  8  1  0  0  0
  2  3  1  0  0  0
  2  9  1  0  0  0
  3  4  1  0  0  0
  3  7  2  0  0  0
  4  5  1  0  0  0
  4 10  1  0  0  0
  5  6  2  0  0  0
M  END
> <s_m_entry_name>
Schrodinger_fragment_36

> <i_m_number_of_atoms>
10

> <r_m_molecular_weight>
97.07401

> <s_m_molecular_formula>
C4H3N1O2

> <r_epik_Ionization_Penalty>
  0.0000

> <r_epik_Ionization_Penalty_Charging>
  0.0000

> <r_epik_Ionization_Penalty_Neutral>
  0.0000

> <r_epik_State_Penalty>
  0.0000

> <i_epik_Tot_Q>
0

> <r_epik_Metal_State_Penalty>
  0.0000

> <b_epik_Metal_Only>
0

> <s_m_entry_id>
4415

> <s_canvas_Unique_SMILES_Stereo>
O=C1C=CC(=O)N1

$$$$
Schrodinger_fragment_37
                    3D
 Structure written by MMmdl.
 13 13  0  0  1  0            999 V2000
    0.1434   -3.5043   -0.0275 C   0  0  0  0  0  0
    0.1536   -2.1741    0.0740 C   0  0  0  0  0  0
    1.5252   -1.7390    0.1077 C   0  0  0  0  0  0
    2.2686   -2.8555    0.0225 N   0  0  0  0  0  0
    1.5081   -3.9616   -0.0619 C   0  0  0  0  0  0
    1.9162   -5.1245   -0.1501 O   0  0  0  0  0  0
    1.9557   -0.5843    0.1962 O   0  0  0  0  0  0
    3.7336   -2.8471    0.0241 C   0  0  0  0  0  0
   -0.7305   -4.1346   -0.0759 H   0  0  0  0  0  0
   -0.7103   -1.5301    0.1228 H   0  0  0  0  0  0
    4.1589   -3.8480   -0.0636 H   0  0  0  0  0  0
    4.1102   -2.4080    0.9489 H   0  0  0  0  0  0
    4.1117   -2.2538   -0.8096 H   0  0  0  0  0  0
  1  2  2  0  0  0
  1  5  1  0  0  0
  1  9  1  0  0  0
  2  3  1  0  0  0
  2 10  1  0  0  0
  3  4  1  0  0  0
  3  7  2  0  0  0
  4  5  1  0  0  0
  4  8  1  0  0  0
  5  6  2  0  0  0
  8 11  1  0  0  0
  8 12  1  0  0  0
  8 13  1  0  0  0
M  END
> <s_m_entry_name>
Schrodinger_fragment_37

> <i_m_number_of_atoms>
13

> <r_m_molecular_weight>
111.1011

> <s_m_molecular_formula>
C5H5N1O2

> <r_epik_Ionization_Penalty>
  0.0000

> <r_epik_Ionization_Penalty_Charging>
  0.0000

> <r_epik_Ionization_Penalty_Neutral>
  0.0000

> <r_epik_State_Penalty>
  0.0000

> <i_epik_Tot_Q>
0

> <r_epik_Metal_State_Penalty>
  0.0000

> <b_epik_Metal_Only>
0

> <s_m_entry_id>
4416

> <s_canvas_Unique_SMILES_Stereo>
CN1C(=O)C=CC1=O

$$$$
Schrodinger_fragment_38
                    3D
 Structure written by MMmdl.
 16 17  0  0  1  0            999 V2000
    0.0182   -3.5108    0.0253 C   0  0  0  0  0  0
    0.0095   -2.1360    0.0214 C   0  0  0  0  0  0
    1.4254   -1.6857    0.0196 C   0  0  0  0  0  0
    2.1645   -2.8099    0.0226 N   0  0  0  0  0  0
    1.4396   -3.9432    0.0261 C   0  0  0  0  0  0
    1.8441   -5.1097    0.0294 O   0  0  0  0  0  0
    1.8152   -0.5143    0.0162 O   0  0  0  0  0  0
   -1.1656   -4.2677    0.0278 C   0  0  0  0  0  0
   -2.3861   -3.5490    0.0261 C   0  0  0  0  0  0
   -2.3951   -2.1281    0.0220 C   0  0  0  0  0  0
   -1.1837   -1.3940    0.0196 C   0  0  0  0  0  0
    3.1695   -2.8036    0.0223 H   0  0  0  0  0  0
   -1.1416   -5.3490    0.0309 H   0  0  0  0  0  0
   -3.3235   -4.0888    0.0280 H   0  0  0  0  0  0
   -3.3391   -1.6001    0.0208 H   0  0  0  0  0  0
   -1.1733   -0.3126    0.0165 H   0  0  0  0  0  0
  1  2  2  0  0  0
  1  5  1  0  0  0
  1  8  1  0  0  0
  2  3  1  0  0  0
  2 11  1  0  0  0
  3  4  1  0  0  0
  3  7  2  0  0  0
  4  5  1  0  0  0
  4 12  1  0  0  0
  5  6  2  0  0  0
  8  9  2  0  0  0
  8 13  1  0  0  0
  9 10  1  0  0  0
  9 14  1  0  0  0
 10 11  2  0  0  0
 10 15  1  0  0  0
 11 16  1  0  0  0
M  END
> <s_m_entry_name>
Schrodinger_fragment_38

> <i_m_number_of_atoms>
16

> <r_m_molecular_weight>
147.13455

> <s_m_molecular_formula>
C8H5N1O2

> <r_epik_Ionization_Penalty>
  0.0037

> <r_epik_Ionization_Penalty_Charging>
  0.0000

> <r_epik_Ionization_Penalty_Neutral>
  0.0037

> <r_epik_State_Penalty>
  0.0000

> <i_epik_Tot_Q>
0

> <r_epik_Metal_State_Penalty>
  1.1786

> <b_epik_Metal_Only>
0

> <s_m_entry_id>
4417

> <s_canvas_Unique_SMILES_Stereo>
O=C1NC(=O)c(c12)cccc2

$$$$
Schrodinger_fragment_38_a
                    3D
 Structure written by MMmdl.
 15 16  0  0  1  0            999 V2000
    0.0181   -3.5132    0.0253 C   0  0  0  0  0  0
    0.0122   -2.1420    0.0214 C   0  0  0  0  0  0
    1.4243   -1.6867    0.0196 C   0  0  0  0  0  0
    2.1824   -2.8183    0.0227 N   0  5  0  0  0  0
    1.4340   -3.9563    0.0262 C   0  0  0  0  0  0
    1.7887   -5.1378    0.0295 O   0  0  0  0  0  0
    1.7688   -0.5022    0.0161 O   0  0  0  0  0  0
   -1.1691   -4.2666    0.0278 C   0  0  0  0  0  0
   -2.3892   -3.5480    0.0261 C   0  0  0  0  0  0
   -2.3953   -2.1278    0.0220 C   0  0  0  0  0  0
   -1.1814   -1.3988    0.0196 C   0  0  0  0  0  0
   -1.1438   -5.3475    0.0309 H   0  0  0  0  0  0
   -3.3270   -4.0869    0.0279 H   0  0  0  0  0  0
   -3.3377   -1.5970    0.0208 H   0  0  0  0  0  0
   -1.1654   -0.3176    0.0165 H   0  0  0  0  0  0
  1  2  2  0  0  0
  1  5  1  0  0  0
  1  8  1  0  0  0
  2  3  1  0  0  0
  2 11  1  0  0  0
  3  4  1  0  0  0
  3  7  2  0  0  0
  4  5  1  0  0  0
  5  6  2  0  0  0
  8  9  2  0  0  0
  8 12  1  0  0  0
  9 10  1  0  0  0
  9 13  1  0  0  0
 10 11  2  0  0  0
 10 14  1  0  0  0
 11 15  1  0  0  0
M  CHG  1   4  -1
M  END
> <s_m_entry_name>
Schrodinger_fragment_38

> <i_m_number_of_atoms>
16

> <r_m_molecular_weight>
147.13455

> <s_m_molecular_formula>
C8H5N1O2

> <r_epik_Ionization_Penalty>
  3.0051

> <r_epik_Ionization_Penalty_Charging>
  3.0051

> <r_epik_Ionization_Penalty_Neutral>
  0.0000

> <r_epik_State_Penalty>
  3.0013

> <i_epik_Tot_Q>
-1

> <r_epik_Metal_State_Penalty>
  0.0872

> <b_epik_Metal_Only>
1

> <s_m_entry_id>
4418

> <s_canvas_Unique_SMILES_Stereo>
O=C1[N-]C(=O)c(c12)cccc2

$$$$
Schrodinger_fragment_39
                    3D
 Structure written by MMmdl.
 19 20  0  0  1  0            999 V2000
    2.6728   -3.5310   -0.0028 C   0  0  0  0  0  0
    2.6800   -2.1595    0.0491 C   0  0  0  0  0  0
    4.1002   -1.7258    0.0653 C   0  0  0  0  0  0
    4.8476   -2.8565    0.0222 N   0  0  0  0  0  0
    4.0884   -3.9805   -0.0200 C   0  0  0  0  0  0
    4.4634   -5.1579   -0.0644 O   0  0  0  0  0  0
    4.4912   -0.5537    0.1097 O   0  0  0  0  0  0
    1.4800   -4.2740   -0.0307 C   0  0  0  0  0  0
    0.2675   -3.5423   -0.0028 C   0  0  0  0  0  0
    0.2751   -2.1224    0.0509 C   0  0  0  0  0  0
    1.4953   -1.4037    0.0779 C   0  0  0  0  0  0
    6.3115   -2.8466    0.0227 C   0  0  0  0  0  0
    1.4915   -5.3547   -0.0716 H   0  0  0  0  0  0
   -0.6760   -4.0709   -0.0226 H   0  0  0  0  0  0
   -0.6627   -1.5838    0.0714 H   0  0  0  0  0  0
    1.5185   -0.3231    0.1187 H   0  0  0  0  0  0
    6.7343   -3.8513   -0.0258 H   0  0  0  0  0  0
    6.6883   -2.3715    0.9295 H   0  0  0  0  0  0
    6.6888   -2.2866   -0.8341 H   0  0  0  0  0  0
  1  2  2  0  0  0
  1  5  1  0  0  0
  1  8  1  0  0  0
  2  3  1  0  0  0
  2 11  1  0  0  0
  3  4  1  0  0  0
  3  7  2  0  0  0
  4  5  1  0  0  0
  4 12  1  0  0  0
  5  6  2  0  0  0
  8  9  2  0  0  0
  8 13  1  0  0  0
  9 10  1  0  0  0
  9 14  1  0  0  0
 10 11  2  0  0  0
 10 15  1  0  0  0
 11 16  1  0  0  0
 12 17  1  0  0  0
 12 18  1  0  0  0
 12 19  1  0  0  0
M  END
> <s_m_entry_name>
Schrodinger_fragment_39

> <i_m_number_of_atoms>
19

> <r_m_molecular_weight>
161.16164

> <s_m_molecular_formula>
C9H7N1O2

> <r_epik_Ionization_Penalty>
  0.0000

> <r_epik_Ionization_Penalty_Charging>
  0.0000

> <r_epik_Ionization_Penalty_Neutral>
  0.0000

> <r_epik_State_Penalty>
  0.0000

> <i_epik_Tot_Q>
0

> <r_epik_Metal_State_Penalty>
  0.0000

> <b_epik_Metal_Only>
0

> <s_m_entry_id>
4419

> <s_canvas_Unique_SMILES_Stereo>
O=C1N(C)C(=O)c(c12)cccc2

$$$$
Schrodinger_fragment_40
                    3D
 Structure written by MMmdl.
 20 21  0  0  1  0            999 V2000
    0.1364   -1.3153    0.1161 C   0  0  0  0  0  0
    0.5005   -2.4900   -0.7922 C   0  0  0  0  0  0
    1.6335   -2.7739    0.0947 N   0  0  0  0  0  0
    1.3525   -1.7312    0.9456 C   0  0  0  0  0  0
    1.9054   -1.3453    1.9558 O   0  0  0  0  0  0
    2.6377   -3.7599    0.0721 C   0  0  0  0  0  0
    3.8447   -3.5187   -0.6155 C   0  0  0  0  0  0
    4.8457   -4.5096   -0.6441 C   0  0  0  0  0  0
    4.6394   -5.7403    0.0103 C   0  0  0  0  0  0
    3.4304   -5.9817    0.6925 C   0  0  0  0  0  0
    2.4276   -4.9927    0.7229 C   0  0  0  0  0  0
    0.2166   -0.3469   -0.3773 H   0  0  0  0  0  0
   -0.8281   -1.4336    0.6094 H   0  0  0  0  0  0
   -0.2554   -3.2773   -0.8140 H   0  0  0  0  0  0
    0.7897   -2.1902   -1.8012 H   0  0  0  0  0  0
    4.0075   -2.5772   -1.1219 H   0  0  0  0  0  0
    5.7724   -4.3253   -1.1697 H   0  0  0  0  0  0
    5.4085   -6.5006   -0.0127 H   0  0  0  0  0  0
    3.2712   -6.9271    1.1926 H   0  0  0  0  0  0
    1.5007   -5.1847    1.2457 H   0  0  0  0  0  0
  1  2  1  0  0  0
  1  4  1  0  0  0
  1 12  1  0  0  0
  1 13  1  0  0  0
  2  3  1  0  0  0
  2 14  1  0  0  0
  2 15  1  0  0  0
  3  4  1  0  0  0
  3  6  1  0  0  0
  4  5  2  0  0  0
  6  7  2  0  0  0
  6 11  1  0  0  0
  7  8  1  0  0  0
  7 16  1  0  0  0
  8  9  2  0  0  0
  8 17  1  0  0  0
  9 10  1  0  0  0
  9 18  1  0  0  0
 10 11  2  0  0  0
 10 19  1  0  0  0
 11 20  1  0  0  0
M  END
> <s_m_entry_name>
Schrodinger_fragment_40

> <i_m_number_of_atoms>
20

> <r_m_molecular_weight>
147.17818

> <s_m_molecular_formula>
C9H9N1O1

> <r_epik_Ionization_Penalty>
  0.0000

> <r_epik_Ionization_Penalty_Charging>
  0.0000

> <r_epik_Ionization_Penalty_Neutral>
  0.0000

> <r_epik_State_Penalty>
  0.0000

> <i_epik_Tot_Q>
0

> <r_epik_Metal_State_Penalty>
  0.0000

> <b_epik_Metal_Only>
0

> <s_m_entry_id>
4420

> <s_canvas_Unique_SMILES_Stereo>
O=C1CCN1c2ccccc2

$$$$
Schrodinger_fragment_41
                    3D
 Structure written by MMmdl.
 12 12  0  0  1  0            999 V2000
   -4.6660   -0.4541    0.0193 C   0  0  0  0  0  0
   -4.6621    0.9548    0.0186 C   0  0  0  0  0  0
   -3.4399    1.6559    0.0226 C   0  0  0  0  0  0
   -2.2218    0.9479    0.0273 C   0  0  0  0  0  0
   -2.2257   -0.4610    0.0280 C   0  0  0  0  0  0
   -3.4479   -1.1620    0.0240 C   0  0  0  0  0  0
   -5.6043   -0.9922    0.0163 H   0  0  0  0  0  0
   -5.5972    1.4983    0.0151 H   0  0  0  0  0  0
   -3.4368    2.7375    0.0221 H   0  0  0  0  0  0
   -1.2835    1.4861    0.0303 H   0  0  0  0  0  0
   -1.2906   -1.0044    0.0315 H   0  0  0  0  0  0
   -3.4509   -2.2436    0.0245 H   0  0  0  0  0  0
  1  2  2  0  0  0
  1  6  1  0  0  0
  1  7  1  0  0  0
  2  3  1  0  0  0
  2  8  1  0  0  0
  3  4  2  0  0  0
  3  9  1  0  0  0
  4  5  1  0  0  0
  4 10  1  0  0  0
  5  6  2  0  0  0
  5 11  1  0  0  0
  6 12  1  0  0  0
M  END
> <s_m_entry_name>
Schrodinger_fragment_41

> <i_m_number_of_atoms>
12

> <r_m_molecular_weight>
78.11472

> <s_m_molecular_formula>
C6H6

> <r_epik_Ionization_Penalty>
  0.0000

> <r_epik_Ionization_Penalty_Charging>
  0.0000

> <r_epik_Ionization_Penalty_Neutral>
  0.0000

> <r_epik_State_Penalty>
  0.0000

> <i_epik_Tot_Q>
0

> <r_epik_Metal_State_Penalty>
  0.0000

> <b_epik_Metal_Only>
0

> <s_m_entry_id>
4421

> <s_canvas_Unique_SMILES_Stereo>
c1ccccc1

$$$$
Schrodinger_fragment_42
                    3D
 Structure written by MMmdl.
 13 13  0  0  1  0            999 V2000
    0.1818   -0.7913    0.0230 C   0  0  0  0  0  0
    0.1852   -2.2000    0.0243 C   0  0  0  0  0  0
    1.4078   -2.8996    0.0257 C   0  0  0  0  0  0
    2.6257   -2.1911    0.0259 C   0  0  0  0  0  0
    2.6227   -0.7821    0.0246 C   0  0  0  0  0  0
    1.3992   -0.0817    0.0232 C   0  0  0  0  0  0
    3.8060   -0.1043    0.0248 O   0  0  0  0  0  0
   -0.7560   -0.2530    0.0219 H   0  0  0  0  0  0
   -0.7500   -2.7438    0.0241 H   0  0  0  0  0  0
    1.4127   -3.9808    0.0267 H   0  0  0  0  0  0
    3.5605   -2.7345    0.0270 H   0  0  0  0  0  0
    1.3804    0.9995    0.0222 H   0  0  0  0  0  0
    3.6943    0.8422    0.0239 H   0  0  0  0  0  0
  1  2  2  0  0  0
  1  6  1  0  0  0
  1  8  1  0  0  0
  2  3  1  0  0  0
  2  9  1  0  0  0
  3  4  2  0  0  0
  3 10  1  0  0  0
  4  5  1  0  0  0
  4 11  1  0  0  0
  5  6  2  0  0  0
  5  7  1  0  0  0
  6 12  1  0  0  0
  7 13  1  0  0  0
M  END
> <s_m_entry_name>
Schrodinger_fragment_42

> <i_m_number_of_atoms>
13

> <r_m_molecular_weight>
94.11412

> <s_m_molecular_formula>
C6H6O1

> <r_epik_Ionization_Penalty>
  0.0007

> <r_epik_Ionization_Penalty_Charging>
  0.0000

> <r_epik_Ionization_Penalty_Neutral>
  0.0007

> <r_epik_State_Penalty>
  0.0000

> <i_epik_Tot_Q>
0

> <r_epik_Metal_State_Penalty>
  0.0000

> <b_epik_Metal_Only>
0

> <s_m_entry_id>
4422

> <s_canvas_Unique_SMILES_Stereo>
Oc1ccccc1

$$$$
Schrodinger_fragment_43
                    3D
 Structure written by MMmdl.
 16 16  0  0  1  0            999 V2000
    0.2058   -0.9471    0.0268 C   0  0  0  0  0  0
    0.1668   -2.3537    0.0295 C   0  0  0  0  0  0
    1.3684   -3.0863    0.0284 C   0  0  0  0  0  0
    2.6076   -2.4156    0.0247 C   0  0  0  0  0  0
    2.6563   -0.9985    0.0219 C   0  0  0  0  0  0
    1.4447   -0.2771    0.0231 C   0  0  0  0  0  0
    3.8211   -0.2627    0.0182 O   0  0  0  0  0  0
    5.0572   -0.9667    0.0170 C   0  0  0  0  0  0
   -0.7149   -0.3800    0.0276 H   0  0  0  0  0  0
   -0.7837   -2.8701    0.0324 H   0  0  0  0  0  0
    1.3410   -4.1673    0.0304 H   0  0  0  0  0  0
    3.5064   -3.0149    0.0239 H   0  0  0  0  0  0
    1.4642    0.8039    0.0210 H   0  0  0  0  0  0
    5.8802   -0.2522    0.0140 H   0  0  0  0  0  0
    5.1616   -1.5907   -0.8717 H   0  0  0  0  0  0
    5.1652   -1.5874    0.9077 H   0  0  0  0  0  0
  1  2  2  0  0  0
  1  6  1  0  0  0
  1  9  1  0  0  0
  2  3  1  0  0  0
  2 10  1  0  0  0
  3  4  2  0  0  0
  3 11  1  0  0  0
  4  5  1  0  0  0
  4 12  1  0  0  0
  5  6  2  0  0  0
  5  7  1  0  0  0
  6 13  1  0  0  0
  7  8  1  0  0  0
  8 14  1  0  0  0
  8 15  1  0  0  0
  8 16  1  0  0  0
M  END
> <s_m_entry_name>
Schrodinger_fragment_43

> <i_m_number_of_atoms>
16

> <r_m_molecular_weight>
108.14121

> <s_m_molecular_formula>
C7H8O1

> <r_epik_Ionization_Penalty>
  0.0000

> <r_epik_Ionization_Penalty_Charging>
  0.0000

> <r_epik_Ionization_Penalty_Neutral>
  0.0000

> <r_epik_State_Penalty>
  0.0000

> <i_epik_Tot_Q>
0

> <r_epik_Metal_State_Penalty>
  0.0000

> <b_epik_Metal_Only>
0

> <s_m_entry_id>
4423

> <s_canvas_Unique_SMILES_Stereo>
COc1ccccc1

$$$$
Schrodinger_fragment_44
                    3D
 Structure written by MMmdl.
 14 14  0  0  1  0            999 V2000
    0.1918   -0.9338    0.0223 C   0  0  0  0  0  0
    0.1896   -2.3424    0.0239 C   0  0  0  0  0  0
    1.4100   -3.0457    0.0262 C   0  0  0  0  0  0
    2.6310   -2.3424    0.0269 C   0  0  0  0  0  0
    2.6335   -0.9326    0.0253 C   0  0  0  0  0  0
    1.4119   -0.2290    0.0231 C   0  0  0  0  0  0
    3.7938   -0.2633    0.0260 N   0  0  0  0  0  0
   -0.7436   -0.3916    0.0206 H   0  0  0  0  0  0
   -0.7474   -2.8829    0.0234 H   0  0  0  0  0  0
    1.4111   -4.1268    0.0274 H   0  0  0  0  0  0
    3.5589   -2.8983    0.0287 H   0  0  0  0  0  0
    1.3951    0.8525    0.0218 H   0  0  0  0  0  0
    3.8362    0.7517    0.0250 H   0  0  0  0  0  0
    4.6937   -0.7347    0.0277 H   0  0  0  0  0  0
  1  2  2  0  0  0
  1  6  1  0  0  0
  1  8  1  0  0  0
  2  3  1  0  0  0
  2  9  1  0  0  0
  3  4  2  0  0  0
  3 10  1  0  0  0
  4  5  1  0  0  0
  4 11  1  0  0  0
  5  6  2  0  0  0
  5  7  1  0  0  0
  6 12  1  0  0  0
  7 13  1  0  0  0
  7 14  1  0  0  0
M  END
> <s_m_entry_name>
Schrodinger_fragment_44

> <i_m_number_of_atoms>
14

> <r_m_molecular_weight>
93.12939

> <s_m_molecular_formula>
C6H7N1

> <r_epik_Ionization_Penalty>
  0.0008

> <r_epik_Ionization_Penalty_Charging>
  0.0000

> <r_epik_Ionization_Penalty_Neutral>
  0.0008

> <r_epik_State_Penalty>
  0.0000

> <i_epik_Tot_Q>
0

> <r_epik_Metal_State_Penalty>
  0.0000

> <b_epik_Metal_Only>
0

> <s_m_entry_id>
4424

> <s_canvas_Unique_SMILES_Stereo>
Nc1ccccc1

$$$$
Schrodinger_fragment_45
                    3D
 Structure written by MMmdl.
 17 17  0  0  1  0            999 V2000
    0.2129   -0.9253    0.0291 C   0  0  0  0  0  0
    0.1768   -2.3327    0.0284 C   0  0  0  0  0  0
    1.3801   -3.0635    0.0249 C   0  0  0  0  0  0
    2.6174   -2.3890    0.0221 C   0  0  0  0  0  0
    2.6592   -0.9760    0.0227 C   0  0  0  0  0  0
    1.4496   -0.2501    0.0263 C   0  0  0  0  0  0
    3.8250   -0.3018    0.0201 N   0  0  0  0  0  0
    5.1671   -0.8677    0.0163 C   0  0  0  0  0  0
   -0.7091   -0.3607    0.0318 H   0  0  0  0  0  0
   -0.7727   -2.8510    0.0306 H   0  0  0  0  0  0
    1.3561   -4.1443    0.0244 H   0  0  0  0  0  0
    3.5257   -2.9749    0.0194 H   0  0  0  0  0  0
    1.4546    0.8314    0.0268 H   0  0  0  0  0  0
    3.7716    0.7157    0.0207 H   0  0  0  0  0  0
    5.9150   -0.0735    0.0147 H   0  0  0  0  0  0
    5.3292   -1.4838   -0.8697 H   0  0  0  0  0  0
    5.3338   -1.4847    0.9007 H   0  0  0  0  0  0
  1  2  2  0  0  0
  1  6  1  0  0  0
  1  9  1  0  0  0
  2  3  1  0  0  0
  2 10  1  0  0  0
  3  4  2  0  0  0
  3 11  1  0  0  0
  4  5  1  0  0  0
  4 12  1  0  0  0
  5  6  2  0  0  0
  5  7  1  0  0  0
  6 13  1  0  0  0
  7  8  1  0  0  0
  7 14  1  0  0  0
  8 15  1  0  0  0
  8 16  1  0  0  0
  8 17  1  0  0  0
M  END
> <s_m_entry_name>
Schrodinger_fragment_45

> <i_m_number_of_atoms>
17

> <r_m_molecular_weight>
107.15648

> <s_m_molecular_formula>
C7H9N1

> <r_epik_Ionization_Penalty>
  0.0011

> <r_epik_Ionization_Penalty_Charging>
  0.0000

> <r_epik_Ionization_Penalty_Neutral>
  0.0011

> <r_epik_State_Penalty>
  0.0000

> <i_epik_Tot_Q>
0

> <r_epik_Metal_State_Penalty>
  0.0000

> <b_epik_Metal_Only>
0

> <s_m_entry_id>
4425

> <s_canvas_Unique_SMILES_Stereo>
CNc1ccccc1

$$$$
Schrodinger_fragment_46
                    3D
 Structure written by MMmdl.
 12 12  0  0  1  0            999 V2000
    1.3452   -4.4336    0.0191 C   0  0  0  0  0  0
    0.1276   -3.7252    0.0187 C   0  0  0  0  0  0
    0.1329   -2.3166    0.0227 C   0  0  0  0  0  0
    1.3538   -1.6130    0.0272 C   0  0  0  0  0  0
    2.5712   -2.3260    0.0276 C   0  0  0  0  0  0
    2.5699   -3.7368    0.0236 C   0  0  0  0  0  0
    1.3397   -5.5155    0.0160 H   0  0  0  0  0  0
   -0.8109   -4.2626    0.0152 H   0  0  0  0  0  0
   -0.8029   -1.7737    0.0224 H   0  0  0  0  0  0
    1.3306   -0.5294    0.0303 H   0  0  0  0  0  0
    3.4927   -4.3053    0.0238 H   0  0  0  0  0  0
    4.0678   -1.4690    0.0331 S   0  5  0  0  0  0
  1  2  2  0  0  0
  1  6  1  0  0  0
  1  7  1  0  0  0
  2  3  1  0  0  0
  2  8  1  0  0  0
  3  4  2  0  0  0
  3  9  1  0  0  0
  4  5  1  0  0  0
  4 10  1  0  0  0
  5  6  2  0  0  0
  5 12  1  0  0  0
  6 11  1  0  0  0
M  CHG  1  12  -1
M  END
> <s_m_entry_name>
Schrodinger_fragment_46

> <i_m_number_of_atoms>
12

> <r_m_molecular_weight>
109.17075

> <s_m_molecular_formula>
C6H5S1

> <r_epik_Ionization_Penalty>
  0.2693

> <r_epik_Ionization_Penalty_Charging>
  0.2693

> <r_epik_Ionization_Penalty_Neutral>
  0.0000

> <r_epik_State_Penalty>
  0.2693

> <i_epik_Tot_Q>
-1

> <r_epik_Metal_State_Penalty>
  0.2693

> <b_epik_Metal_Only>
0

> <s_m_entry_id>
4426

> <s_canvas_Unique_SMILES_Stereo>
[S-]c1ccccc1

$$$$
Schrodinger_fragment_46_a
                    3D
 Structure written by MMmdl.
 13 13  0  0  1  0            999 V2000
    1.3791   -4.4093    0.0192 C   0  0  0  0  0  0
    0.1450   -3.7292    0.0187 C   0  0  0  0  0  0
    0.1167   -2.3205    0.0227 C   0  0  0  0  0  0
    1.3223   -1.5913    0.0272 C   0  0  0  0  0  0
    2.5553   -2.2728    0.0277 C   0  0  0  0  0  0
    2.5857   -3.6816    0.0238 C   0  0  0  0  0  0
    1.4007   -5.4905    0.0162 H   0  0  0  0  0  0
   -0.7808   -4.2887    0.0152 H   0  0  0  0  0  0
   -0.8302   -1.7982    0.0223 H   0  0  0  0  0  0
    1.2979   -0.5103    0.0303 H   0  0  0  0  0  0
    3.5295   -4.2088    0.0241 H   0  0  0  0  0  0
    4.1027   -1.3320    0.0336 S   0  0  0  0  0  0
    4.9199   -2.3916    0.0322 H   0  0  0  0  0  0
  1  2  2  0  0  0
  1  6  1  0  0  0
  1  7  1  0  0  0
  2  3  1  0  0  0
  2  8  1  0  0  0
  3  4  2  0  0  0
  3  9  1  0  0  0
  4  5  1  0  0  0
  4 10  1  0  0  0
  5  6  2  0  0  0
  5 12  1  0  0  0
  6 11  1  0  0  0
 12 13  1  0  0  0
M  END
> <s_m_entry_name>
Schrodinger_fragment_46

> <i_m_number_of_atoms>
12

> <r_m_molecular_weight>
109.17075

> <s_m_molecular_formula>
C6H5S1

> <r_epik_Ionization_Penalty>
  0.5967

> <r_epik_Ionization_Penalty_Charging>
  0.0000

> <r_epik_Ionization_Penalty_Neutral>
  0.5967

> <r_epik_State_Penalty>
  0.5967

> <i_epik_Tot_Q>
0

> <r_epik_Metal_State_Penalty>
  0.5967

> <b_epik_Metal_Only>
0

> <s_m_entry_id>
4427

> <s_canvas_Unique_SMILES_Stereo>
Sc1ccccc1

$$$$
Schrodinger_fragment_47
                    3D
 Structure written by MMmdl.
 13 13  0  0  1  0            999 V2000
    1.4386   -4.3846    0.0270 C   0  0  0  0  0  0
    0.2181   -3.6812    0.0299 C   0  0  0  0  0  0
    0.2170   -2.2726    0.0284 C   0  0  0  0  0  0
    1.4369   -1.5667    0.0240 C   0  0  0  0  0  0
    2.6609   -2.2683    0.0211 C   0  0  0  0  0  0
    2.6588   -3.6792    0.0226 C   0  0  0  0  0  0
    3.9203   -1.5399    0.0165 C   0  0  0  0  0  0
    4.9240   -0.9594    0.0129 N   0  0  0  0  0  0
    1.4395   -5.4661    0.0281 H   0  0  0  0  0  0
   -0.7183   -4.2228    0.0332 H   0  0  0  0  0  0
   -0.7200   -1.7325    0.0306 H   0  0  0  0  0  0
    1.4304   -0.4851    0.0228 H   0  0  0  0  0  0
    3.5931   -4.2242    0.0204 H   0  0  0  0  0  0
  1  2  2  0  0  0
  1  6  1  0  0  0
  1  9  1  0  0  0
  2  3  1  0  0  0
  2 10  1  0  0  0
  3  4  2  0  0  0
  3 11  1  0  0  0
  4  5  1  0  0  0
  4 12  1  0  0  0
  5  6  2  0  0  0
  5  7  1  0  0  0
  6 13  1  0  0  0
  7  8  3  0  0  0
M  END
> <s_m_entry_name>
Schrodinger_fragment_48

> <i_m_number_of_atoms>
13

> <r_m_molecular_weight>
103.1246

> <s_m_molecular_formula>
C7H5N1

> <r_epik_Ionization_Penalty>
  0.0000

> <r_epik_Ionization_Penalty_Charging>
  0.0000

> <r_epik_Ionization_Penalty_Neutral>
  0.0000

> <r_epik_State_Penalty>
  0.0000

> <i_epik_Tot_Q>
0

> <r_epik_Metal_State_Penalty>
  0.0000

> <b_epik_Metal_Only>
0

> <s_m_entry_id>
4428

> <s_canvas_Unique_SMILES_Stereo>
N#Cc1ccccc1

$$$$
Schrodinger_fragment_48
                    3D
 Structure written by MMmdl.
 17 17  0  0  1  0            999 V2000
    0.1868   -2.2886    0.0282 C   0  0  0  0  0  0
    0.2036   -3.6956    0.0301 C   0  0  0  0  0  0
    1.4322   -4.3819    0.0280 C   0  0  0  0  0  0
    2.6442   -3.6631    0.0240 C   0  0  0  0  0  0
    2.6402   -2.2467    0.0221 C   0  0  0  0  0  0
    1.3982   -1.5691    0.0242 C   0  0  0  0  0  0
    3.9067   -1.4556    0.0178 C   0  0  0  0  0  0
    3.9362   -0.2211    0.0161 O   0  0  0  0  0  0
    5.2256   -2.2206    0.0156 C   0  0  0  0  0  0
   -0.7565   -1.7593    0.0298 H   0  0  0  0  0  0
   -0.7260   -4.2486    0.0332 H   0  0  0  0  0  0
    1.4458   -5.4635    0.0295 H   0  0  0  0  0  0
    3.5706   -4.2200    0.0225 H   0  0  0  0  0  0
    1.3668   -0.4876    0.0228 H   0  0  0  0  0  0
    6.0672   -1.5287    0.0126 H   0  0  0  0  0  0
    5.2969   -2.8504   -0.8705 H   0  0  0  0  0  0
    5.3013   -2.8480    0.9031 H   0  0  0  0  0  0
  1  2  2  0  0  0
  1  6  1  0  0  0
  1 10  1  0  0  0
  2  3  1  0  0  0
  2 11  1  0  0  0
  3  4  2  0  0  0
  3 12  1  0  0  0
  4  5  1  0  0  0
  4 13  1  0  0  0
  5  6  2  0  0  0
  5  7  1  0  0  0
  6 14  1  0  0  0
  7  8  2  0  0  0
  7  9  1  0  0  0
  9 15  1  0  0  0
  9 16  1  0  0  0
  9 17  1  0  0  0
M  END
> <s_m_entry_name>
Schrodinger_fragment_49

> <i_m_number_of_atoms>
17

> <r_m_molecular_weight>
120.15236

> <s_m_molecular_formula>
C8H8O1

> <r_epik_Ionization_Penalty>
  0.0000

> <r_epik_Ionization_Penalty_Charging>
  0.0000

> <r_epik_Ionization_Penalty_Neutral>
  0.0000

> <r_epik_State_Penalty>
  0.0000

> <i_epik_Tot_Q>
0

> <r_epik_Metal_State_Penalty>
  0.0000

> <b_epik_Metal_Only>
0

> <s_m_entry_id>
4429

> <s_canvas_Unique_SMILES_Stereo>
CC(=O)c1ccccc1

$$$$
Schrodinger_fragment_49
                    3D
 Structure written by MMmdl.
 14 14  0  0  1  0            999 V2000
    0.2013   -2.4521    0.0251 C   0  0  0  0  0  0
    0.1997   -3.8598    0.0289 C   0  0  0  0  0  0
    1.4192   -4.5629    0.0300 C   0  0  0  0  0  0
    2.6396   -3.8580    0.0273 C   0  0  0  0  0  0
    2.6548   -2.4432    0.0233 C   0  0  0  0  0  0
    1.4223   -1.7482    0.0223 C   0  0  0  0  0  0
    3.9583   -1.6911    0.0204 C   0  0  0  0  0  0
    3.9624   -0.4426    0.0169 O   0  0  0  0  0  0
   -0.7349   -1.9104    0.0242 H   0  0  0  0  0  0
   -0.7372   -4.4004    0.0311 H   0  0  0  0  0  0
    1.4197   -5.6445    0.0330 H   0  0  0  0  0  0
    3.5707   -4.4082    0.0281 H   0  0  0  0  0  0
    1.4119   -0.6669    0.0193 H   0  0  0  0  0  0
    5.0412   -2.3123    0.0213 O   0  5  0  0  0  0
  1  2  2  0  0  0
  1  6  1  0  0  0
  1  9  1  0  0  0
  2  3  1  0  0  0
  2 10  1  0  0  0
  3  4  2  0  0  0
  3 11  1  0  0  0
  4  5  1  0  0  0
  4 12  1  0  0  0
  5  6  2  0  0  0
  5  7  1  0  0  0
  6 13  1  0  0  0
  7  8  2  0  0  0
  7 14  1  0  0  0
M  CHG  1  14  -1
M  END
> <s_m_entry_name>
Schrodinger_fragment_50

> <i_m_number_of_atoms>
14

> <r_m_molecular_weight>
121.1167

> <s_m_molecular_formula>
C7H5O2

> <r_epik_Ionization_Penalty>
  0.0009

> <r_epik_Ionization_Penalty_Charging>
  0.0009

> <r_epik_Ionization_Penalty_Neutral>
  0.0000

> <r_epik_State_Penalty>
  0.0000

> <i_epik_Tot_Q>
-1

> <r_epik_Metal_State_Penalty>
  0.0000

> <b_epik_Metal_Only>
0

> <s_m_entry_id>
4430

> <s_canvas_Unique_SMILES_Stereo>
[O-]C(=O)c1ccccc1

$$$$
Schrodinger_fragment_50
                    3D
 Structure written by MMmdl.
 16 16  0  0  1  0            999 V2000
    0.2454   -2.4535    0.1742 C   0  0  0  0  0  0
    0.2269   -3.8584    0.0865 C   0  0  0  0  0  0
    1.4293   -4.5663   -0.1011 C   0  0  0  0  0  0
    2.6511   -3.8703   -0.1955 C   0  0  0  0  0  0
    2.6810   -2.4591   -0.0952 C   0  0  0  0  0  0
    1.4669   -1.7575    0.0792 C   0  0  0  0  0  0
    3.9735   -1.7023   -0.2131 C   0  0  0  0  0  0
    4.0203   -0.5725   -0.6980 O   0  0  0  0  0  0
    5.0479   -2.2933    0.2918 N   0  0  0  0  0  0
   -0.6783   -1.9081    0.3128 H   0  0  0  0  0  0
   -0.7106   -4.3930    0.1581 H   0  0  0  0  0  0
    1.4146   -5.6451   -0.1769 H   0  0  0  0  0  0
    3.5630   -4.4291   -0.3547 H   0  0  0  0  0  0
    1.4716   -0.6777    0.1447 H   0  0  0  0  0  0
    5.9448   -1.8309    0.2657 H   0  0  0  0  0  0
    4.9651   -3.2012    0.7244 H   0  0  0  0  0  0
  1  2  2  0  0  0
  1  6  1  0  0  0
  1 10  1  0  0  0
  2  3  1  0  0  0
  2 11  1  0  0  0
  3  4  2  0  0  0
  3 12  1  0  0  0
  4  5  1  0  0  0
  4 13  1  0  0  0
  5  6  2  0  0  0
  5  7  1  0  0  0
  6 14  1  0  0  0
  7  8  2  0  0  0
  7  9  1  0  0  0
  9 15  1  0  0  0
  9 16  1  0  0  0
M  END
> <s_m_entry_name>
Schrodinger_fragment_51

> <i_m_number_of_atoms>
16

> <r_m_molecular_weight>
121.13994

> <s_m_molecular_formula>
C7H7N1O1

> <r_epik_Ionization_Penalty>
  0.0002

> <r_epik_Ionization_Penalty_Charging>
  0.0000

> <r_epik_Ionization_Penalty_Neutral>
  0.0002

> <r_epik_State_Penalty>
  0.0000

> <i_epik_Tot_Q>
0

> <r_epik_Metal_State_Penalty>
  0.1615

> <b_epik_Metal_Only>
0

> <s_m_entry_id>
4431

> <s_canvas_Unique_SMILES_Stereo>
NC(=O)c1ccccc1

$$$$
Schrodinger_fragment_50_a
                    3D
 Structure written by MMmdl.
 15 15  0  0  1  0            999 V2000
    0.2515   -2.4500    0.1741 C   0  0  0  0  0  0
    0.2233   -3.8525    0.0677 C   0  0  0  0  0  0
    1.4238   -4.5631   -0.1136 C   0  0  0  0  0  0
    2.6493   -3.8708   -0.1896 C   0  0  0  0  0  0
    2.7000   -2.4583   -0.0926 C   0  0  0  0  0  0
    1.4788   -1.7610    0.0966 C   0  0  0  0  0  0
    4.0177   -1.7519   -0.1600 C   0  0  0  0  0  0
    3.9158   -0.6708   -0.7459 O   0  5  0  0  0  0
    5.0727   -2.2492    0.3024 N   0  0  0  0  0  0
   -0.6684   -1.8998    0.3176 H   0  0  0  0  0  0
   -0.7177   -4.3826    0.1270 H   0  0  0  0  0  0
    1.4069   -5.6414   -0.1945 H   0  0  0  0  0  0
    3.5617   -4.4327   -0.3325 H   0  0  0  0  0  0
    1.4820   -0.6839    0.1886 H   0  0  0  0  0  0
    4.8866   -3.1576    0.7282 H   0  0  0  0  0  0
  1  2  2  0  0  0
  1  6  1  0  0  0
  1 10  1  0  0  0
  2  3  1  0  0  0
  2 11  1  0  0  0
  3  4  2  0  0  0
  3 12  1  0  0  0
  4  5  1  0  0  0
  4 13  1  0  0  0
  5  6  2  0  0  0
  5  7  1  0  0  0
  6 14  1  0  0  0
  7  8  1  0  0  0
  7  9  2  0  0  0
  9 15  1  0  0  0
M  CHG  1   8  -1
M  END
> <s_m_entry_name>
Schrodinger_fragment_51

> <i_m_number_of_atoms>
16

> <r_m_molecular_weight>
121.13994

> <s_m_molecular_formula>
C7H7N1O1

> <r_epik_Ionization_Penalty>
  5.1910

> <r_epik_Ionization_Penalty_Charging>
  5.1910

> <r_epik_Ionization_Penalty_Neutral>
  0.0000

> <r_epik_State_Penalty>
  5.1909

> <i_epik_Tot_Q>
-1

> <r_epik_Metal_State_Penalty>
  1.2597

> <b_epik_Metal_Only>
1

> <s_m_entry_id>
4432

> <s_canvas_Unique_SMILES_Stereo>
[H]/N=C([O-])\c1ccccc1

$$$$
Schrodinger_fragment_51
                    3D
 Structure written by MMmdl.
 18 18  0  0  1  0            999 V2000
  -13.0989   -0.0774    0.7767 C   0  0  0  0  0  0
  -13.2947   -1.3626    0.2311 C   0  0  0  0  0  0
  -12.3065   -1.9412   -0.5913 C   0  0  0  0  0  0
  -11.1210   -1.2319   -0.8733 C   0  0  0  0  0  0
  -10.9346    0.0590   -0.3388 C   0  0  0  0  0  0
  -11.9142    0.6338    0.4960 C   0  0  0  0  0  0
   -9.4064    0.9444   -0.6599 S   0  0  0  0  0  0
   -8.3021    0.4236    0.6893 C   0  0  0  0  0  0
   -8.8294    0.4570   -1.9261 O   0  0  0  0  0  0
   -9.6513    2.3902   -0.5072 O   0  0  0  0  0  0
  -13.8553    0.3618    1.4125 H   0  0  0  0  0  0
  -14.2034   -1.9081    0.4479 H   0  0  0  0  0  0
  -12.4560   -2.9298   -1.0035 H   0  0  0  0  0  0
  -10.3554   -1.6708   -1.4967 H   0  0  0  0  0  0
  -11.7528    1.6162    0.9159 H   0  0  0  0  0  0
   -7.3388    0.9149    0.5780 H   0  0  0  0  0  0
   -8.1758   -0.6559    0.6471 H   0  0  0  0  0  0
   -8.7515    0.6983    1.6410 H   0  0  0  0  0  0
  1  2  2  0  0  0
  1  6  1  0  0  0
  1 11  1  0  0  0
  2  3  1  0  0  0
  2 12  1  0  0  0
  3  4  2  0  0  0
  3 13  1  0  0  0
  4  5  1  0  0  0
  4 14  1  0  0  0
  5  6  2  0  0  0
  5  7  1  0  0  0
  6 15  1  0  0  0
  7  8  1  0  0  0
  7  9  2  0  0  0
  7 10  2  0  0  0
  8 16  1  0  0  0
  8 17  1  0  0  0
  8 18  1  0  0  0
M  END
> <s_m_entry_name>
Schrodinger_fragment_52

> <i_m_number_of_atoms>
18

> <r_m_molecular_weight>
156.20461

> <s_m_molecular_formula>
C7H8O2S1

> <r_epik_Ionization_Penalty>
  0.0000

> <r_epik_Ionization_Penalty_Charging>
  0.0000

> <r_epik_Ionization_Penalty_Neutral>
  0.0000

> <r_epik_State_Penalty>
  0.0000

> <i_epik_Tot_Q>
0

> <r_epik_Metal_State_Penalty>
  0.0000

> <b_epik_Metal_Only>
0

> <s_m_entry_id>
4433

> <s_canvas_Unique_SMILES_Stereo>
CS(=O)(=O)c1ccccc1

$$$$
Schrodinger_fragment_52
                    3D
 Structure written by MMmdl.
 17 17  0  0  1  0            999 V2000
    0.1529   -2.1084   -0.2407 C   0  0  0  0  0  0
    0.1605   -3.4914    0.0339 C   0  0  0  0  0  0
    1.3614   -4.1353    0.3962 C   0  0  0  0  0  0
    2.5578   -3.3945    0.4860 C   0  0  0  0  0  0
    2.5457   -2.0112    0.2169 C   0  0  0  0  0  0
    1.3483   -1.3657   -0.1515 C   0  0  0  0  0  0
    4.0759   -1.0768    0.3146 S   0  0  0  0  0  0
    5.1823   -2.0487   -0.5399 N   0  0  0  0  0  0
    3.9396    0.1785   -0.4422 O   0  0  0  0  0  0
    4.5353   -1.0527    1.7131 O   0  0  0  0  0  0
   -0.7689   -1.6172   -0.5208 H   0  0  0  0  0  0
   -0.7571   -4.0602   -0.0353 H   0  0  0  0  0  0
    1.3656   -5.1964    0.6042 H   0  0  0  0  0  0
    3.4848   -3.8767    0.7610 H   0  0  0  0  0  0
    1.3513   -0.3062   -0.3623 H   0  0  0  0  0  0
    6.1003   -1.6043   -0.5197 H   0  0  0  0  0  0
    4.8814   -2.1074   -1.5135 H   0  0  0  0  0  0
  1  2  2  0  0  0
  1  6  1  0  0  0
  1 11  1  0  0  0
  2  3  1  0  0  0
  2 12  1  0  0  0
  3  4  2  0  0  0
  3 13  1  0  0  0
  4  5  1  0  0  0
  4 14  1  0  0  0
  5  6  2  0  0  0
  5  7  1  0  0  0
  6 15  1  0  0  0
  7  8  1  0  0  0
  7  9  2  0  0  0
  7 10  2  0  0  0
  8 16  1  0  0  0
  8 17  1  0  0  0
M  END
> <s_m_entry_name>
Schrodinger_fragment_53

> <i_m_number_of_atoms>
17

> <r_m_molecular_weight>
157.19219

> <s_m_molecular_formula>
C6H7N1O2S1

> <r_epik_Ionization_Penalty>
  0.0011

> <r_epik_Ionization_Penalty_Charging>
  0.0000

> <r_epik_Ionization_Penalty_Neutral>
  0.0011

> <r_epik_State_Penalty>
  0.0000

> <i_epik_Tot_Q>
0

> <r_epik_Metal_State_Penalty>
  0.3972

> <b_epik_Metal_Only>
0

> <s_m_entry_id>
4434

> <s_canvas_Unique_SMILES_Stereo>
NS(=O)(=O)c1ccccc1

$$$$
Schrodinger_fragment_52_a
                    3D
 Structure written by MMmdl.
 16 16  0  0  1  0            999 V2000
    0.2914   -2.1495   -0.4705 C   0  0  0  0  0  0
    0.1795   -3.4677    0.0158 C   0  0  0  0  0  0
    1.2870   -4.0971    0.6191 C   0  0  0  0  0  0
    2.5109   -3.4070    0.7378 C   0  0  0  0  0  0
    2.6241   -2.0867    0.2505 C   0  0  0  0  0  0
    1.5140   -1.4569   -0.3533 C   0  0  0  0  0  0
    4.1790   -1.1995    0.4172 S   0  0  0  0  0  0
    4.8416   -1.6642   -0.9671 N   0  5  0  0  0  0
    3.8683    0.2410    0.4212 O   0  0  0  0  0  0
    4.8861   -1.7630    1.5809 O   0  0  0  0  0  0
   -0.5609   -1.6700   -0.9335 H   0  0  0  0  0  0
   -0.7587   -3.9980   -0.0748 H   0  0  0  0  0  0
    1.1974   -5.1093    0.9908 H   0  0  0  0  0  0
    3.3674   -3.8809    1.1985 H   0  0  0  0  0  0
    1.6105   -0.4451   -0.7240 H   0  0  0  0  0  0
    5.7629   -1.2106   -0.9907 H   0  0  0  0  0  0
  1  2  2  0  0  0
  1  6  1  0  0  0
  1 11  1  0  0  0
  2  3  1  0  0  0
  2 12  1  0  0  0
  3  4  2  0  0  0
  3 13  1  0  0  0
  4  5  1  0  0  0
  4 14  1  0  0  0
  5  6  2  0  0  0
  5  7  1  0  0  0
  6 15  1  0  0  0
  7  8  1  0  0  0
  7  9  2  0  0  0
  7 10  2  0  0  0
  8 16  1  0  0  0
M  CHG  1   8  -1
M  END
> <s_m_entry_name>
Schrodinger_fragment_53

> <i_m_number_of_atoms>
17

> <r_m_molecular_weight>
157.19219

> <s_m_molecular_formula>
C6H7N1O2S1

> <r_epik_Ionization_Penalty>
  4.1206

> <r_epik_Ionization_Penalty_Charging>
  4.1206

> <r_epik_Ionization_Penalty_Neutral>
  0.0000

> <r_epik_State_Penalty>
  4.1200

> <i_epik_Tot_Q>
-1

> <r_epik_Metal_State_Penalty>
  0.4245

> <b_epik_Metal_Only>
1

> <s_m_entry_id>
4435

> <s_canvas_Unique_SMILES_Stereo>
[NH-]S(=O)(=O)c1ccccc1

$$$$
Schrodinger_fragment_53
                    3D
 Structure written by MMmdl.
 12 12  0  0  1  0            999 V2000
    0.1268   -0.8297    0.0226 C   0  0  0  0  0  0
    0.1273   -2.2387    0.0256 C   0  0  0  0  0  0
    1.3482   -2.9422    0.0264 C   0  0  0  0  0  0
    2.5679   -2.2363    0.0242 C   0  0  0  0  0  0
    2.5680   -0.8276    0.0211 C   0  0  0  0  0  0
    1.3471   -0.1248    0.0204 C   0  0  0  0  0  0
    4.0619    0.0361    0.0184 Cl  0  0  0  0  0  0
   -0.8093   -0.2886    0.0220 H   0  0  0  0  0  0
   -0.8092   -2.7802    0.0274 H   0  0  0  0  0  0
    1.3501   -4.0234    0.0288 H   0  0  0  0  0  0
    3.5043   -2.7757    0.0248 H   0  0  0  0  0  0
    1.3469    0.9558    0.0180 H   0  0  0  0  0  0
  1  2  2  0  0  0
  1  6  1  0  0  0
  1  8  1  0  0  0
  2  3  1  0  0  0
  2  9  1  0  0  0
  3  4  2  0  0  0
  3 10  1  0  0  0
  4  5  1  0  0  0
  4 11  1  0  0  0
  5  6  2  0  0  0
  5  7  1  0  0  0
  6 12  1  0  0  0
M  END
> <s_m_entry_name>
Schrodinger_fragment_54

> <i_m_number_of_atoms>
12

> <r_m_molecular_weight>
112.55975

> <s_m_molecular_formula>
C6H5Cl1

> <r_epik_Ionization_Penalty>
  0.0000

> <r_epik_Ionization_Penalty_Charging>
  0.0000

> <r_epik_Ionization_Penalty_Neutral>
  0.0000

> <r_epik_State_Penalty>
  0.0000

> <i_epik_Tot_Q>
0

> <r_epik_Metal_State_Penalty>
  0.0000

> <b_epik_Metal_Only>
0

> <s_m_entry_id>
4436

> <s_canvas_Unique_SMILES_Stereo>
Clc1ccccc1

$$$$
Schrodinger_fragment_54
                    3D
 Structure written by MMmdl.
 12 12  0  0  1  0            999 V2000
    0.1078   -0.9577    0.0274 C   0  0  0  0  0  0
    0.1105   -2.3660    0.0290 C   0  0  0  0  0  0
    1.3328   -3.0666    0.0252 C   0  0  0  0  0  0
    2.5545   -2.3640    0.0198 C   0  0  0  0  0  0
    2.5519   -0.9505    0.0183 C   0  0  0  0  0  0
    1.3275   -0.2525    0.0221 C   0  0  0  0  0  0
    4.0325   -0.0576    0.0118 Cl  0  0  0  0  0  0
    4.0385   -3.2514    0.0153 Cl  0  0  0  0  0  0
   -0.8290   -0.4174    0.0304 H   0  0  0  0  0  0
   -0.8243   -2.9098    0.0331 H   0  0  0  0  0  0
    1.3347   -4.1469    0.0264 H   0  0  0  0  0  0
    1.3253    0.8278    0.0209 H   0  0  0  0  0  0
  1  2  2  0  0  0
  1  6  1  0  0  0
  1  9  1  0  0  0
  2  3  1  0  0  0
  2 10  1  0  0  0
  3  4  2  0  0  0
  3 11  1  0  0  0
  4  5  1  0  0  0
  4  8  1  0  0  0
  5  6  2  0  0  0
  5  7  1  0  0  0
  6 12  1  0  0  0
M  END
> <s_m_entry_name>
Schrodinger_fragment_55

> <i_m_number_of_atoms>
12

> <r_m_molecular_weight>
147.00478

> <s_m_molecular_formula>
C6H4Cl2

> <r_epik_Ionization_Penalty>
  0.0000

> <r_epik_Ionization_Penalty_Charging>
  0.0000

> <r_epik_Ionization_Penalty_Neutral>
  0.0000

> <r_epik_State_Penalty>
  0.0000

> <i_epik_Tot_Q>
0

> <r_epik_Metal_State_Penalty>
  0.0000

> <b_epik_Metal_Only>
0

> <s_m_entry_id>
4437

> <s_canvas_Unique_SMILES_Stereo>
Clc1c(Cl)cccc1

$$$$
Schrodinger_fragment_55
                    3D
 Structure written by MMmdl.
 12 12  0  0  1  0            999 V2000
    0.1297   -0.9432    0.0262 C   0  0  0  0  0  0
    0.1317   -2.3524    0.0260 C   0  0  0  0  0  0
    1.3524   -3.0556    0.0231 C   0  0  0  0  0  0
    2.5714   -2.3498    0.0206 C   0  0  0  0  0  0
    2.5704   -0.9412    0.0209 C   0  0  0  0  0  0
    1.3497   -0.2380    0.0237 C   0  0  0  0  0  0
    4.0639   -0.0763    0.0177 Cl  0  0  0  0  0  0
    1.3534   -4.7815    0.0228 Cl  0  0  0  0  0  0
   -0.8069   -0.4037    0.0284 H   0  0  0  0  0  0
   -0.8034   -2.8943    0.0279 H   0  0  0  0  0  0
    3.5070   -2.8888    0.0184 H   0  0  0  0  0  0
    1.3494    0.8428    0.0239 H   0  0  0  0  0  0
  1  2  2  0  0  0
  1  6  1  0  0  0
  1  9  1  0  0  0
  2  3  1  0  0  0
  2 10  1  0  0  0
  3  4  2  0  0  0
  3  8  1  0  0  0
  4  5  1  0  0  0
  4 11  1  0  0  0
  5  6  2  0  0  0
  5  7  1  0  0  0
  6 12  1  0  0  0
M  END
> <s_m_entry_name>
Schrodinger_fragment_56

> <i_m_number_of_atoms>
12

> <r_m_molecular_weight>
147.00478

> <s_m_molecular_formula>
C6H4Cl2

> <r_epik_Ionization_Penalty>
  0.0000

> <r_epik_Ionization_Penalty_Charging>
  0.0000

> <r_epik_Ionization_Penalty_Neutral>
  0.0000

> <r_epik_State_Penalty>
  0.0000

> <i_epik_Tot_Q>
0

> <r_epik_Metal_State_Penalty>
  0.0000

> <b_epik_Metal_Only>
0

> <s_m_entry_id>
4438

> <s_canvas_Unique_SMILES_Stereo>
Clc1cc(Cl)ccc1

$$$$
Schrodinger_fragment_56
                    3D
 Structure written by MMmdl.
 12 12  0  0  1  0            999 V2000
    0.1522   -0.9565    0.0230 C   0  0  0  0  0  0
    0.1528   -2.3652    0.0243 C   0  0  0  0  0  0
    1.3737   -3.0679    0.0246 C   0  0  0  0  0  0
    2.5936   -2.3622    0.0236 C   0  0  0  0  0  0
    2.5930   -0.9535    0.0223 C   0  0  0  0  0  0
    1.3720   -0.2508    0.0220 C   0  0  0  0  0  0
    4.0863   -0.0896    0.0210 Cl  0  0  0  0  0  0
   -1.3405   -3.2291    0.0256 Cl  0  0  0  0  0  0
   -0.7836   -0.4168    0.0228 H   0  0  0  0  0  0
    1.3751   -4.1482    0.0256 H   0  0  0  0  0  0
    3.5294   -2.9020    0.0238 H   0  0  0  0  0  0
    1.3706    0.8295    0.0210 H   0  0  0  0  0  0
  1  2  2  0  0  0
  1  6  1  0  0  0
  1  9  1  0  0  0
  2  3  1  0  0  0
  2  8  1  0  0  0
  3  4  2  0  0  0
  3 10  1  0  0  0
  4  5  1  0  0  0
  4 11  1  0  0  0
  5  6  2  0  0  0
  5  7  1  0  0  0
  6 12  1  0  0  0
M  END
> <s_m_entry_name>
Schrodinger_fragment_57

> <i_m_number_of_atoms>
12

> <r_m_molecular_weight>
147.00478

> <s_m_molecular_formula>
C6H4Cl2

> <r_epik_Ionization_Penalty>
  0.0000

> <r_epik_Ionization_Penalty_Charging>
  0.0000

> <r_epik_Ionization_Penalty_Neutral>
  0.0000

> <r_epik_State_Penalty>
  0.0000

> <i_epik_Tot_Q>
0

> <r_epik_Metal_State_Penalty>
  0.0000

> <b_epik_Metal_Only>
0

> <s_m_entry_id>
4439

> <s_canvas_Unique_SMILES_Stereo>
Clc1ccc(Cl)cc1

$$$$
Schrodinger_fragment_57
                    3D
 Structure written by MMmdl.
 15 15  0  0  1  0            999 V2000
    0.1665   -3.0908    0.0200 C   0  0  0  0  0  0
    0.1673   -4.4993    0.0242 C   0  0  0  0  0  0
    1.3880   -5.2018    0.0288 C   0  0  0  0  0  0
    2.6074   -4.4964    0.0290 C   0  0  0  0  0  0
    2.6092   -3.0862    0.0248 C   0  0  0  0  0  0
    1.3853   -2.3845    0.0202 C   0  0  0  0  0  0
    3.9252   -2.3347    0.0251 C   0  0  0  0  0  0
   -0.7708   -2.5510    0.0165 H   0  0  0  0  0  0
   -0.7689   -5.0410    0.0240 H   0  0  0  0  0  0
    1.3893   -6.2833    0.0320 H   0  0  0  0  0  0
    3.5413   -5.0426    0.0325 H   0  0  0  0  0  0
    1.3734   -1.3027    0.0169 H   0  0  0  0  0  0
    3.7712   -1.2551    0.0213 H   0  0  0  0  0  0
    4.5122   -2.5947   -0.8563 H   0  0  0  0  0  0
    4.5085   -2.5890    0.9106 H   0  0  0  0  0  0
  1  2  2  0  0  0
  1  6  1  0  0  0
  1  8  1  0  0  0
  2  3  1  0  0  0
  2  9  1  0  0  0
  3  4  2  0  0  0
  3 10  1  0  0  0
  4  5  1  0  0  0
  4 11  1  0  0  0
  5  6  2  0  0  0
  5  7  1  0  0  0
  6 12  1  0  0  0
  7 13  1  0  0  0
  7 14  1  0  0  0
  7 15  1  0  0  0
M  END
> <s_m_entry_name>
Schrodinger_fragment_58

> <i_m_number_of_atoms>
15

> <r_m_molecular_weight>
92.14181

> <s_m_molecular_formula>
C7H8

> <r_epik_Ionization_Penalty>
  0.0000

> <r_epik_Ionization_Penalty_Charging>
  0.0000

> <r_epik_Ionization_Penalty_Neutral>
  0.0000

> <r_epik_State_Penalty>
  0.0000

> <i_epik_Tot_Q>
0

> <r_epik_Metal_State_Penalty>
  0.0000

> <b_epik_Metal_Only>
0

> <s_m_entry_id>
4440

> <s_canvas_Unique_SMILES_Stereo>
Cc1ccccc1

$$$$
Schrodinger_fragment_58
                    3D
 Structure written by MMmdl.
 18 18  0  0  1  0            999 V2000
   -0.5793   -1.2479    0.1129 C   0  0  0  0  0  0
   -0.5740   -2.6525    0.0439 C   0  0  0  0  0  0
    0.6483   -3.3470   -0.0204 C   0  0  0  0  0  0
    1.8732   -2.6468   -0.0164 C   0  0  0  0  0  0
    1.8680   -1.2299    0.0532 C   0  0  0  0  0  0
    0.6375   -0.5408    0.1175 C   0  0  0  0  0  0
    3.1576   -0.4266    0.0607 C   0  0  0  0  0  0
    3.1587   -3.4566   -0.0879 C   0  0  0  0  0  0
   -1.5172   -0.7117    0.1625 H   0  0  0  0  0  0
   -1.5078   -3.1982    0.0403 H   0  0  0  0  0  0
    0.6417   -4.4276   -0.0732 H   0  0  0  0  0  0
    0.6181    0.5395    0.1710 H   0  0  0  0  0  0
    2.9625    0.6448    0.1181 H   0  0  0  0  0  0
    3.7298   -0.6091   -0.8494 H   0  0  0  0  0  0
    3.7735   -0.6958    0.9193 H   0  0  0  0  0  0
    4.0617   -2.8488   -0.0805 H   0  0  0  0  0  0
    3.1733   -4.0538   -1.0001 H   0  0  0  0  0  0
    3.2169   -4.1401    0.7596 H   0  0  0  0  0  0
  1  2  2  0  0  0
  1  6  1  0  0  0
  1  9  1  0  0  0
  2  3  1  0  0  0
  2 10  1  0  0  0
  3  4  2  0  0  0
  3 11  1  0  0  0
  4  5  1  0  0  0
  4  8  1  0  0  0
  5  6  2  0  0  0
  5  7  1  0  0  0
  6 12  1  0  0  0
  7 13  1  0  0  0
  7 14  1  0  0  0
  7 15  1  0  0  0
  8 16  1  0  0  0
  8 17  1  0  0  0
  8 18  1  0  0  0
M  END
> <s_m_entry_name>
Schrodinger_fragment_59

> <i_m_number_of_atoms>
18

> <r_m_molecular_weight>
106.1689

> <s_m_molecular_formula>
C8H10

> <r_epik_Ionization_Penalty>
  0.0000

> <r_epik_Ionization_Penalty_Charging>
  0.0000

> <r_epik_Ionization_Penalty_Neutral>
  0.0000

> <r_epik_State_Penalty>
  0.0000

> <i_epik_Tot_Q>
0

> <r_epik_Metal_State_Penalty>
  0.0000

> <b_epik_Metal_Only>
0

> <s_m_entry_id>
4441

> <s_canvas_Unique_SMILES_Stereo>
Cc1c(C)cccc1

$$$$
Schrodinger_fragment_59
                    3D
 Structure written by MMmdl.
 18 18  0  0  1  0            999 V2000
   -1.0873   -0.8278    0.0203 C   0  0  0  0  0  0
   -1.0828   -2.2358    0.0435 C   0  0  0  0  0  0
    0.1393   -2.9384    0.0456 C   0  0  0  0  0  0
    1.3569   -2.2265    0.0244 C   0  0  0  0  0  0
    1.3540   -0.8167    0.0011 C   0  0  0  0  0  0
    0.1288   -0.1180   -0.0009 C   0  0  0  0  0  0
    2.6678   -0.0616   -0.0215 C   0  0  0  0  0  0
    0.1365   -4.4537    0.0707 C   0  0  0  0  0  0
   -2.0261   -0.2908    0.0188 H   0  0  0  0  0  0
   -2.0212   -2.7739    0.0597 H   0  0  0  0  0  0
    2.2978   -2.7609    0.0259 H   0  0  0  0  0  0
    0.1139    0.9635   -0.0185 H   0  0  0  0  0  0
    2.5107    1.0174   -0.0404 H   0  0  0  0  0  0
    3.2479   -0.3334   -0.9039 H   0  0  0  0  0  0
    3.2595   -0.3007    0.8627 H   0  0  0  0  0  0
    1.1495   -4.8576    0.0662 H   0  0  0  0  0  0
   -0.3875   -4.8478   -0.8006 H   0  0  0  0  0  0
   -0.3680   -4.8185    0.9660 H   0  0  0  0  0  0
  1  2  2  0  0  0
  1  6  1  0  0  0
  1  9  1  0  0  0
  2  3  1  0  0  0
  2 10  1  0  0  0
  3  4  2  0  0  0
  3  8  1  0  0  0
  4  5  1  0  0  0
  4 11  1  0  0  0
  5  6  2  0  0  0
  5  7  1  0  0  0
  6 12  1  0  0  0
  7 13  1  0  0  0
  7 14  1  0  0  0
  7 15  1  0  0  0
  8 16  1  0  0  0
  8 17  1  0  0  0
  8 18  1  0  0  0
M  END
> <s_m_entry_name>
Schrodinger_fragment_60

> <i_m_number_of_atoms>
18

> <r_m_molecular_weight>
106.1689

> <s_m_molecular_formula>
C8H10

> <r_epik_Ionization_Penalty>
  0.0000

> <r_epik_Ionization_Penalty_Charging>
  0.0000

> <r_epik_Ionization_Penalty_Neutral>
  0.0000

> <r_epik_State_Penalty>
  0.0000

> <i_epik_Tot_Q>
0

> <r_epik_Metal_State_Penalty>
  0.0000

> <b_epik_Metal_Only>
0

> <s_m_entry_id>
4442

> <s_canvas_Unique_SMILES_Stereo>
Cc1cc(C)ccc1

$$$$
Schrodinger_fragment_60
                    3D
 Structure written by MMmdl.
 18 18  0  0  1  0            999 V2000
    0.1539   -0.8227    0.0189 C   0  0  0  0  0  0
    0.1551   -2.2324    0.0227 C   0  0  0  0  0  0
    1.3806   -2.9304    0.0276 C   0  0  0  0  0  0
    2.5976   -2.2213    0.0286 C   0  0  0  0  0  0
    2.5964   -0.8116    0.0248 C   0  0  0  0  0  0
    1.3709   -0.1136    0.0199 C   0  0  0  0  0  0
    3.9105   -0.0567    0.0260 C   0  0  0  0  0  0
   -1.1590   -2.9873    0.0217 C   0  0  0  0  0  0
   -0.7813   -0.2789    0.0151 H   0  0  0  0  0  0
    1.3954   -4.0121    0.0306 H   0  0  0  0  0  0
    3.5328   -2.7651    0.0324 H   0  0  0  0  0  0
    1.3561    0.9680    0.0169 H   0  0  0  0  0  0
    3.7537    1.0225    0.0225 H   0  0  0  0  0  0
    4.4985   -0.3149   -0.8552 H   0  0  0  0  0  0
    4.4940   -0.3098    0.9118 H   0  0  0  0  0  0
   -1.0022   -4.0665    0.0248 H   0  0  0  0  0  0
   -1.7428   -2.7339   -0.8638 H   0  0  0  0  0  0
   -1.7467   -2.7295    0.9032 H   0  0  0  0  0  0
  1  2  2  0  0  0
  1  6  1  0  0  0
  1  9  1  0  0  0
  2  3  1  0  0  0
  2  8  1  0  0  0
  3  4  2  0  0  0
  3 10  1  0  0  0
  4  5  1  0  0  0
  4 11  1  0  0  0
  5  6  2  0  0  0
  5  7  1  0  0  0
  6 12  1  0  0  0
  7 13  1  0  0  0
  7 14  1  0  0  0
  7 15  1  0  0  0
  8 16  1  0  0  0
  8 17  1  0  0  0
  8 18  1  0  0  0
M  END
> <s_m_entry_name>
Schrodinger_fragment_61

> <i_m_number_of_atoms>
18

> <r_m_molecular_weight>
106.1689

> <s_m_molecular_formula>
C8H10

> <r_epik_Ionization_Penalty>
  0.0000

> <r_epik_Ionization_Penalty_Charging>
  0.0000

> <r_epik_Ionization_Penalty_Neutral>
  0.0000

> <r_epik_State_Penalty>
  0.0000

> <i_epik_Tot_Q>
0

> <r_epik_Metal_State_Penalty>
  0.0000

> <b_epik_Metal_Only>
0

> <s_m_entry_id>
4443

> <s_canvas_Unique_SMILES_Stereo>
Cc1ccc(C)cc1

$$$$
Schrodinger_fragment_61
                    3D
 Structure written by MMmdl.
 18 18  0  0  1  0            999 V2000
    5.4982   -2.4302    0.1948 C   0  0  0  0  0  0
    4.2941   -1.7425   -0.2747 N   0  0  0  0  0  0
    4.3000   -0.3603    0.2076 C   0  0  0  0  0  0
    5.5924    0.3836   -0.1855 C   0  0  0  0  0  0
    6.7313   -0.3352    0.2921 O   0  0  0  0  0  0
    6.7848   -1.6763   -0.1983 C   0  0  0  0  0  0
    3.0799   -2.4479    0.1244 C   0  0  0  0  0  0
    5.4685   -2.5393    1.2809 H   0  0  0  0  0  0
    5.5359   -3.4420   -0.2131 H   0  0  0  0  0  0
    3.4392    0.1801   -0.1906 H   0  0  0  0  0  0
    4.1964   -0.3417    1.2945 H   0  0  0  0  0  0
    5.6550    0.5005   -1.2688 H   0  0  0  0  0  0
    5.5958    1.3867    0.2421 H   0  0  0  0  0  0
    7.6586   -2.1768    0.2200 H   0  0  0  0  0  0
    6.9116   -1.6701   -1.2823 H   0  0  0  0  0  0
    2.1905   -1.9441   -0.2579 H   0  0  0  0  0  0
    2.9899   -2.5067    1.2108 H   0  0  0  0  0  0
    3.0718   -3.4664   -0.2674 H   0  0  0  0  0  0
  1  2  1  0  0  0
  1  6  1  0  0  0
  1  8  1  0  0  0
  1  9  1  0  0  0
  2  3  1  0  0  0
  2  7  1  0  0  0
  3  4  1  0  0  0
  3 10  1  0  0  0
  3 11  1  0  0  0
  4  5  1  0  0  0
  4 12  1  0  0  0
  4 13  1  0  0  0
  5  6  1  0  0  0
  6 14  1  0  0  0
  6 15  1  0  0  0
  7 16  1  0  0  0
  7 17  1  0  0  0
  7 18  1  0  0  0
M  END
> <s_m_entry_name>
Schrodinger_fragment_62

> <i_m_number_of_atoms>
18

> <r_m_molecular_weight>
101.14952

> <s_m_molecular_formula>
C5H11N1O1

> <r_epik_Ionization_Penalty>
  0.2898

> <r_epik_Ionization_Penalty_Charging>
  0.0000

> <r_epik_Ionization_Penalty_Neutral>
  0.2898

> <r_epik_State_Penalty>
  0.2898

> <i_epik_Tot_Q>
0

> <r_epik_Metal_State_Penalty>
  0.2898

> <b_epik_Metal_Only>
0

> <s_m_entry_id>
4444

> <s_canvas_Unique_SMILES_Stereo>
CN1CCOCC1

$$$$
Schrodinger_fragment_61_a
                    3D
 Structure written by MMmdl.
 19 19  0  0  1  0            999 V2000
    5.5212   -2.4472    0.2061 C   0  0  0  0  0  0
    4.2966   -1.7415   -0.2454 N   0  3  0  0  0  0
    4.2968   -0.3323    0.2190 C   0  0  0  0  0  0
    5.5986    0.3764   -0.1948 C   0  0  0  0  0  0
    6.7167   -0.3438    0.3214 O   0  0  0  0  0  0
    6.7818   -1.6673   -0.2072 C   0  0  0  0  0  0
    3.0550   -2.4625    0.1142 C   0  0  0  0  0  0
    5.5020   -2.5662    1.2905 H   0  0  0  0  0  0
    5.5536   -3.4500   -0.2222 H   0  0  0  0  0  0
    3.4410    0.1989   -0.1998 H   0  0  0  0  0  0
    4.1900   -0.2996    1.3044 H   0  0  0  0  0  0
    5.6707    0.4653   -1.2802 H   0  0  0  0  0  0
    5.6151    1.3906    0.2049 H   0  0  0  0  0  0
    7.6716   -2.1615    0.1836 H   0  0  0  0  0  0
    6.8893   -1.6392   -1.2929 H   0  0  0  0  0  0
    2.1790   -1.9507   -0.2854 H   0  0  0  0  0  0
    2.9396   -2.5360    1.1960 H   0  0  0  0  0  0
    3.0605   -3.4733   -0.2948 H   0  0  0  0  0  0
    4.3247   -1.7191   -1.2562 H   0  0  0  0  0  0
  1  2  1  0  0  0
  1  6  1  0  0  0
  1  8  1  0  0  0
  1  9  1  0  0  0
  2  3  1  0  0  0
  2  7  1  0  0  0
  2 19  1  0  0  0
  3  4  1  0  0  0
  3 10  1  0  0  0
  3 11  1  0  0  0
  4  5  1  0  0  0
  4 12  1  0  0  0
  4 13  1  0  0  0
  5  6  1  0  0  0
  6 14  1  0  0  0
  6 15  1  0  0  0
  7 16  1  0  0  0
  7 17  1  0  0  0
  7 18  1  0  0  0
M  CHG  1   2   1
M  END
> <s_m_entry_name>
Schrodinger_fragment_62

> <i_m_number_of_atoms>
18

> <r_m_molecular_weight>
101.14952

> <s_m_molecular_formula>
C5H11N1O1

> <r_epik_Ionization_Penalty>
  0.5627

> <r_epik_Ionization_Penalty_Charging>
  0.5627

> <r_epik_Ionization_Penalty_Neutral>
  0.0000

> <r_epik_State_Penalty>
  0.5627

> <i_epik_Tot_Q>
1

> <r_epik_Metal_State_Penalty>
  0.5627

> <b_epik_Metal_Only>
0

> <s_m_entry_id>
4445

> <s_canvas_Unique_SMILES_Stereo>
C[N@H+]1CCOCC1

$$$$
Schrodinger_fragment_62
                    3D
 Structure written by MMmdl.
 18 18  0  0  1  0            999 V2000
    4.8797   -2.5271    0.2450 C   0  0  0  0  0  0
    3.6471   -0.3832    0.2496 C   0  0  0  0  0  0
    4.9106    0.3733   -0.2057 C   0  0  0  0  0  0
    6.1867   -0.3493    0.2560 C   0  0  0  0  0  0
    6.1683   -1.8143   -0.2104 C   0  0  0  0  0  0
    4.8498   -3.5432   -0.1499 H   0  0  0  0  0  0
    4.8638   -2.6146    1.3324 H   0  0  0  0  0  0
    3.5655   -0.3565    1.3372 H   0  0  0  0  0  0
    2.7531    0.1034   -0.1421 H   0  0  0  0  0  0
    4.9123    0.4671   -1.2926 H   0  0  0  0  0  0
    4.8943    1.3905    0.1876 H   0  0  0  0  0  0
    7.0703    0.1595   -0.1316 H   0  0  0  0  0  0
    6.2595   -0.3098    1.3441 H   0  0  0  0  0  0
    7.0400   -2.3414    0.1796 H   0  0  0  0  0  0
    6.2483   -1.8564   -1.2976 H   0  0  0  0  0  0
    3.6755   -1.7922   -0.2016 N   0  3  0  0  0  0
    3.6237   -1.8198   -1.2067 H   0  0  0  0  0  0
    2.8573   -2.2634    0.1505 H   0  0  0  0  0  0
  1  5  1  0  0  0
  1  6  1  0  0  0
  1  7  1  0  0  0
  1 16  1  0  0  0
  2  3  1  0  0  0
  2  8  1  0  0  0
  2  9  1  0  0  0
  2 16  1  0  0  0
  3  4  1  0  0  0
  3 10  1  0  0  0
  3 11  1  0  0  0
  4  5  1  0  0  0
  4 12  1  0  0  0
  4 13  1  0  0  0
  5 14  1  0  0  0
  5 15  1  0  0  0
 16 17  1  0  0  0
 16 18  1  0  0  0
M  CHG  1  16   1
M  END
> <s_m_entry_name>
Schrodinger_fragment_64

> <i_m_number_of_atoms>
18

> <r_m_molecular_weight>
86.15809

> <s_m_molecular_formula>
C5H12N1

> <r_epik_Ionization_Penalty>
  0.0006

> <r_epik_Ionization_Penalty_Charging>
  0.0006

> <r_epik_Ionization_Penalty_Neutral>
  0.0000

> <r_epik_State_Penalty>
  0.0000

> <i_epik_Tot_Q>
1

> <r_epik_Metal_State_Penalty>
  0.0000

> <b_epik_Metal_Only>
0

> <s_m_entry_id>
4446

> <s_canvas_Unique_SMILES_Stereo>
C1CC[NH2+]CC1

$$$$
Schrodinger_fragment_63
                    3D
 Structure written by MMmdl.
 21 21  0  0  1  0            999 V2000
    3.7394   -0.3343   -0.1275 C   0  0  0  0  0  0
    4.9751   -2.4702   -0.1406 C   0  0  0  0  0  0
    6.2771   -1.7475    0.2533 C   0  0  0  0  0  0
    6.2746   -0.2925   -0.2377 C   0  0  0  0  0  0
    5.0172    0.4305    0.2665 C   0  0  0  0  0  0
    2.5205   -2.4661    0.0674 C   0  0  0  0  0  0
    2.8690    0.1733    0.2907 H   0  0  0  0  0  0
    3.6170   -0.3207   -1.2118 H   0  0  0  0  0  0
    4.9202   -2.5729   -1.2257 H   0  0  0  0  0  0
    4.9834   -3.4817    0.2680 H   0  0  0  0  0  0
    6.3992   -1.7717    1.3372 H   0  0  0  0  0  0
    7.1345   -2.2791   -0.1614 H   0  0  0  0  0  0
    7.1718    0.2245    0.1056 H   0  0  0  0  0  0
    6.3022   -0.2699   -1.3284 H   0  0  0  0  0  0
    4.9816    1.4425   -0.1390 H   0  0  0  0  0  0
    5.0628    0.5388    1.3512 H   0  0  0  0  0  0
    2.5459   -3.4696    0.4930 H   0  0  0  0  0  0
    2.3508   -2.5579   -1.0059 H   0  0  0  0  0  0
    1.6655   -1.9477    0.5021 H   0  0  0  0  0  0
    3.7782   -1.7403    0.3511 N   0  3  0  0  0  0
    3.8537   -1.7028    1.3568 H   0  0  0  0  0  0
  1  5  1  0  0  0
  1  7  1  0  0  0
  1  8  1  0  0  0
  1 20  1  0  0  0
  2  3  1  0  0  0
  2  9  1  0  0  0
  2 10  1  0  0  0
  2 20  1  0  0  0
  3  4  1  0  0  0
  3 11  1  0  0  0
  3 12  1  0  0  0
  4  5  1  0  0  0
  4 13  1  0  0  0
  4 14  1  0  0  0
  5 15  1  0  0  0
  5 16  1  0  0  0
  6 17  1  0  0  0
  6 18  1  0  0  0
  6 19  1  0  0  0
  6 20  1  0  0  0
 20 21  1  0  0  0
M  CHG  1  20   1
M  END
> <s_m_entry_name>
Schrodinger_fragment_65

> <i_m_number_of_atoms>
21

> <r_m_molecular_weight>
100.18518

> <s_m_molecular_formula>
C6H14N1

> <r_epik_Ionization_Penalty>
  0.0009

> <r_epik_Ionization_Penalty_Charging>
  0.0009

> <r_epik_Ionization_Penalty_Neutral>
  0.0000

> <r_epik_State_Penalty>
  0.0000

> <i_epik_Tot_Q>
1

> <r_epik_Metal_State_Penalty>
  0.0000

> <b_epik_Metal_Only>
0

> <s_m_entry_id>
4447

> <s_canvas_Unique_SMILES_Stereo>
C[N@H+]1CCCCC1

$$$$
Schrodinger_fragment_64
                    3D
 Structure written by MMmdl.
 22 22  0  0  1  0            999 V2000
    3.9151   -0.2030   -0.5083 C   0  0  0  0  0  0
    3.8422   -1.6597   -0.3010 N   0  0  0  0  0  0
    5.1184   -2.3453   -0.5720 C   0  0  0  0  0  0
    6.2378   -1.7828    0.3226 C   0  0  0  0  0  0
    6.3620   -0.2606    0.1688 C   0  0  0  0  0  0
    5.0037    0.4210    0.3844 C   0  0  0  0  0  0
    2.7107   -2.2719    0.1295 C   0  0  0  0  0  0
    1.6617   -1.6585    0.3484 O   0  0  0  0  0  0
    2.7121   -3.7819    0.3621 C   0  0  0  0  0  0
    4.1432   -0.0147   -1.5584 H   0  0  0  0  0  0
    2.9657    0.3006   -0.3201 H   0  0  0  0  0  0
    5.0745   -3.4261   -0.4473 H   0  0  0  0  0  0
    5.3733   -2.1885   -1.6212 H   0  0  0  0  0  0
    6.0307   -2.0311    1.3647 H   0  0  0  0  0  0
    7.1875   -2.2601    0.0768 H   0  0  0  0  0  0
    7.0982    0.1321    0.8715 H   0  0  0  0  0  0
    6.7326   -0.0250   -0.8301 H   0  0  0  0  0  0
    5.0863    1.4896    0.1810 H   0  0  0  0  0  0
    4.7105    0.3303    1.4315 H   0  0  0  0  0  0
    1.7395   -4.1172    0.7224 H   0  0  0  0  0  0
    3.4557   -4.0558    1.1106 H   0  0  0  0  0  0
    2.9247   -4.3145   -0.5648 H   0  0  0  0  0  0
  1  2  1  0  0  0
  1  6  1  0  0  0
  1 10  1  0  0  0
  1 11  1  0  0  0
  2  3  1  0  0  0
  2  7  1  0  0  0
  3  4  1  0  0  0
  3 12  1  0  0  0
  3 13  1  0  0  0
  4  5  1  0  0  0
  4 14  1  0  0  0
  4 15  1  0  0  0
  5  6  1  0  0  0
  5 16  1  0  0  0
  5 17  1  0  0  0
  6 18  1  0  0  0
  6 19  1  0  0  0
  7  8  2  0  0  0
  7  9  1  0  0  0
  9 20  1  0  0  0
  9 21  1  0  0  0
  9 22  1  0  0  0
M  END
> <s_m_entry_name>
Schrodinger_fragment_66

> <i_m_number_of_atoms>
22

> <r_m_molecular_weight>
127.18776

> <s_m_molecular_formula>
C7H13N1O1

> <r_epik_Ionization_Penalty>
  0.0000

> <r_epik_Ionization_Penalty_Charging>
  0.0000

> <r_epik_Ionization_Penalty_Neutral>
  0.0000

> <r_epik_State_Penalty>
  0.0000

> <i_epik_Tot_Q>
0

> <r_epik_Metal_State_Penalty>
  0.0000

> <b_epik_Metal_Only>
0

> <s_m_entry_id>
4448

> <s_canvas_Unique_SMILES_Stereo>
CC(=O)N1CCCCC1

$$$$
Schrodinger_fragment_65
                    3D
 Structure written by MMmdl.
 23 23  0  0  1  0            999 V2000
    3.9716   -0.1601   -0.0017 C   0  0  0  0  0  0
    3.9740   -1.6405   -0.0229 N   0  0  0  0  0  0
    5.2126   -2.2391   -0.5696 C   0  0  0  0  0  0
    6.4685   -1.6853    0.1245 C   0  0  0  0  0  0
    6.5075   -0.1560    0.0639 C   0  0  0  0  0  0
    5.2264    0.4037    0.6879 C   0  0  0  0  0  0
    2.4840   -2.4194   -0.4279 S   0  0  0  0  0  0
    2.5868   -4.0072    0.4456 C   0  0  0  0  0  0
    2.4891   -2.6556   -1.8795 O   0  0  0  0  0  0
    1.3971   -1.6387    0.1822 O   0  0  0  0  0  0
    3.8996    0.2096   -1.0261 H   0  0  0  0  0  0
    3.0856    0.2026    0.5209 H   0  0  0  0  0  0
    5.1852   -3.3222   -0.4545 H   0  0  0  0  0  0
    5.2565   -2.0459   -1.6429 H   0  0  0  0  0  0
    6.4894   -2.0151    1.1644 H   0  0  0  0  0  0
    7.3624   -2.0990   -0.3444 H   0  0  0  0  0  0
    7.3832    0.2221    0.5926 H   0  0  0  0  0  0
    6.5961    0.1760   -0.9715 H   0  0  0  0  0  0
    5.2258    1.4926    0.6226 H   0  0  0  0  0  0
    5.1991    0.1628    1.7517 H   0  0  0  0  0  0
    1.6371   -4.5272    0.3399 H   0  0  0  0  0  0
    2.7842   -3.8264    1.4997 H   0  0  0  0  0  0
    3.3749   -4.6211    0.0186 H   0  0  0  0  0  0
  1  2  1  0  0  0
  1  6  1  0  0  0
  1 11  1  0  0  0
  1 12  1  0  0  0
  2  3  1  0  0  0
  2  7  1  0  0  0
  3  4  1  0  0  0
  3 13  1  0  0  0
  3 14  1  0  0  0
  4  5  1  0  0  0
  4 15  1  0  0  0
  4 16  1  0  0  0
  5  6  1  0  0  0
  5 17  1  0  0  0
  5 18  1  0  0  0
  6 19  1  0  0  0
  6 20  1  0  0  0
  7  8  1  0  0  0
  7  9  2  0  0  0
  7 10  2  0  0  0
  8 21  1  0  0  0
  8 22  1  0  0  0
  8 23  1  0  0  0
M  END
> <s_m_entry_name>
Schrodinger_fragment_67

> <i_m_number_of_atoms>
23

> <r_m_molecular_weight>
163.24001

> <s_m_molecular_formula>
C6H13N1O2S1

> <r_epik_Ionization_Penalty>
  0.0000

> <r_epik_Ionization_Penalty_Charging>
  0.0000

> <r_epik_Ionization_Penalty_Neutral>
  0.0000

> <r_epik_State_Penalty>
  0.0000

> <i_epik_Tot_Q>
0

> <r_epik_Metal_State_Penalty>
  0.0000

> <b_epik_Metal_Only>
0

> <s_m_entry_id>
4449

> <s_canvas_Unique_SMILES_Stereo>
CS(=O)(=O)N1CCCCC1

$$$$
Schrodinger_fragment_66
                    3D
 Structure written by MMmdl.
 17 17  0  0  1  0            999 V2000
    3.6748   -0.3834    0.2495 C   0  0  0  0  0  0
    3.6787   -1.7960   -0.1821 N   0  3  0  0  0  0
    4.8969   -2.5030    0.2627 C   0  0  0  0  0  0
    6.1572   -1.7427   -0.2082 C   0  0  0  0  0  0
    6.1510   -0.3676    0.3005 N   0  0  0  0  0  0
    4.9668    0.3219   -0.2210 C   0  0  0  0  0  0
    2.7993    0.1179   -0.1652 H   0  0  0  0  0  0
    3.5791   -0.3293    1.3351 H   0  0  0  0  0  0
    2.8650   -2.2629    0.1820 H   0  0  0  0  0  0
    4.8900   -2.6029    1.3492 H   0  0  0  0  0  0
    4.8943   -3.5157   -0.1427 H   0  0  0  0  0  0
    7.0490   -2.2559    0.1554 H   0  0  0  0  0  0
    6.2230   -1.7430   -1.2980 H   0  0  0  0  0  0
    6.0920   -0.3953    1.3173 H   0  0  0  0  0  0
    5.0053    0.3689   -1.3111 H   0  0  0  0  0  0
    4.9676    1.3542    0.1330 H   0  0  0  0  0  0
    3.6322   -1.8290   -1.1864 H   0  0  0  0  0  0
  1  2  1  0  0  0
  1  6  1  0  0  0
  1  7  1  0  0  0
  1  8  1  0  0  0
  2  3  1  0  0  0
  2  9  1  0  0  0
  2 17  1  0  0  0
  3  4  1  0  0  0
  3 10  1  0  0  0
  3 11  1  0  0  0
  4  5  1  0  0  0
  4 12  1  0  0  0
  4 13  1  0  0  0
  5  6  1  0  0  0
  5 14  1  0  0  0
  6 15  1  0  0  0
  6 16  1  0  0  0
M  CHG  1   2   1
M  END
> <s_m_entry_name>
Schrodinger_fragment_68

> <i_m_number_of_atoms>
16

> <r_m_molecular_weight>
86.1377

> <s_m_molecular_formula>
C4H10N2

> <r_epik_Ionization_Penalty>
  0.0325

> <r_epik_Ionization_Penalty_Charging>
  0.0009

> <r_epik_Ionization_Penalty_Neutral>
  0.0315

> <r_epik_State_Penalty>
  0.0315

> <i_epik_Tot_Q>
1

> <r_epik_Metal_State_Penalty>
  0.0315

> <b_epik_Metal_Only>
0

> <s_m_entry_id>
4450

> <s_canvas_Unique_SMILES_Stereo>
C1C[NH2+]CCN1

$$$$
Schrodinger_fragment_66_a
                    3D
 Structure written by MMmdl.
 18 18  0  0  1  0            999 V2000
    3.6616   -0.3778    0.2356 C   0  0  0  0  0  0
    3.6799   -1.7954   -0.1914 N   0  3  0  0  0  0
    4.8957   -2.5168    0.2487 C   0  0  0  0  0  0
    6.1785   -1.7793   -0.1888 C   0  0  0  0  0  0
    6.1602   -0.3618    0.2384 N   0  3  0  0  0  0
    4.9445    0.3596   -0.2019 C   0  0  0  0  0  0
    2.7832    0.1169   -0.1804 H   0  0  0  0  0  0
    3.5562   -0.3315    1.3205 H   0  0  0  0  0  0
    2.8688   -2.2610    0.1826 H   0  0  0  0  0  0
    4.8772   -2.6212    1.3345 H   0  0  0  0  0  0
    4.8864   -3.5287   -0.1580 H   0  0  0  0  0  0
    7.0570   -2.2741    0.2271 H   0  0  0  0  0  0
    6.2838   -1.8254   -1.2737 H   0  0  0  0  0  0
    6.2314   -0.3145    1.2423 H   0  0  0  0  0  0
    4.9631    0.4639   -1.2877 H   0  0  0  0  0  0
    4.9537    1.3715    0.2047 H   0  0  0  0  0  0
    3.6084   -1.8428   -1.1952 H   0  0  0  0  0  0
    6.9713    0.1039   -0.1353 H   0  0  0  0  0  0
  1  2  1  0  0  0
  1  6  1  0  0  0
  1  7  1  0  0  0
  1  8  1  0  0  0
  2  3  1  0  0  0
  2  9  1  0  0  0
  2 17  1  0  0  0
  3  4  1  0  0  0
  3 10  1  0  0  0
  3 11  1  0  0  0
  4  5  1  0  0  0
  4 12  1  0  0  0
  4 13  1  0  0  0
  5  6  1  0  0  0
  5 14  1  0  0  0
  5 18  1  0  0  0
  6 15  1  0  0  0
  6 16  1  0  0  0
M  CHG  2   2   1   5   1
M  END
> <s_m_entry_name>
Schrodinger_fragment_68

> <i_m_number_of_atoms>
16

> <r_m_molecular_weight>
86.1377

> <s_m_molecular_formula>
C4H10N2

> <r_epik_Ionization_Penalty>
  7.0136

> <r_epik_Ionization_Penalty_Charging>
  7.0136

> <r_epik_Ionization_Penalty_Neutral>
  0.0000

> <r_epik_State_Penalty>
  1.7534

> <i_epik_Tot_Q>
2

> <r_epik_Metal_State_Penalty>
  1.7534

> <b_epik_Metal_Only>
0

> <s_m_entry_id>
4451

> <s_canvas_Unique_SMILES_Stereo>
C1C[NH2+]CC[NH2+]1

$$$$
Schrodinger_fragment_67
                    3D
 Structure written by MMmdl.
 20 20  0  0  1  0            999 V2000
    6.5504   -8.4742   -0.1911 C   0  0  0  0  0  0
    5.3424   -7.7612    0.2717 N   0  3  0  0  0  0
    5.3282   -6.3578   -0.1886 C   0  0  0  0  0  0
    6.6263   -5.6380    0.2375 C   0  0  0  0  0  0
    7.7965   -6.3434   -0.3030 N   0  0  0  0  0  0
    7.8230   -7.7105    0.2352 C   0  0  0  0  0  0
    9.0158   -5.6398    0.0856 C   0  0  0  0  0  0
    6.5576   -9.4820    0.2256 H   0  0  0  0  0  0
    6.5191   -8.5842   -1.2761 H   0  0  0  0  0  0
    4.5222   -8.2345   -0.0685 H   0  0  0  0  0  0
    5.2162   -6.3280   -1.2734 H   0  0  0  0  0  0
    4.4594   -5.8484    0.2298 H   0  0  0  0  0  0
    6.6067   -4.6130   -0.1375 H   0  0  0  0  0  0
    6.6823   -5.5707    1.3262 H   0  0  0  0  0  0
    7.9102   -7.6974    1.3238 H   0  0  0  0  0  0
    8.7007   -8.2392   -0.1414 H   0  0  0  0  0  0
    9.8991   -6.1442   -0.3101 H   0  0  0  0  0  0
    9.1228   -5.5793    1.1705 H   0  0  0  0  0  0
    9.0201   -4.6219   -0.3084 H   0  0  0  0  0  0
    5.3161   -7.7776    1.2771 H   0  0  0  0  0  0
  1  2  1  0  0  0
  1  6  1  0  0  0
  1  8  1  0  0  0
  1  9  1  0  0  0
  2  3  1  0  0  0
  2 10  1  0  0  0
  2 20  1  0  0  0
  3  4  1  0  0  0
  3 11  1  0  0  0
  3 12  1  0  0  0
  4  5  1  0  0  0
  4 13  1  0  0  0
  4 14  1  0  0  0
  5  6  1  0  0  0
  5  7  1  0  0  0
  6 15  1  0  0  0
  6 16  1  0  0  0
  7 17  1  0  0  0
  7 18  1  0  0  0
  7 19  1  0  0  0
M  CHG  1   2   1
M  END
> <s_m_entry_name>
Schrodinger_fragment_71

> <i_m_number_of_atoms>
19

> <r_m_molecular_weight>
100.16479

> <s_m_molecular_formula>
C5H12N2

> <r_epik_Ionization_Penalty>
  0.0231

> <r_epik_Ionization_Penalty_Charging>
  0.0204

> <r_epik_Ionization_Penalty_Neutral>
  0.0027

> <r_epik_State_Penalty>
  0.0970

> <i_epik_Tot_Q>
1

> <r_epik_Metal_State_Penalty>
  0.0970

> <b_epik_Metal_Only>
0

> <s_m_entry_id>
4452

> <s_canvas_Unique_SMILES_Stereo>
CN1CC[NH2+]CC1

$$$$
Schrodinger_fragment_67_a
                    3D
 Structure written by MMmdl.
 20 20  0  0  1  0            999 V2000
    6.5256   -8.4530   -0.2174 C   0  0  0  0  0  0
    5.3532   -7.7562    0.3156 N   0  0  0  0  0  0
    5.3342   -6.3912   -0.2141 C   0  0  0  0  0  0
    6.6010   -5.6262    0.2246 C   0  0  0  0  0  0
    7.8199   -6.3300   -0.2410 N   0  3  0  0  0  0
    7.8216   -7.7386    0.2214 C   0  0  0  0  0  0
    9.0659   -5.6106    0.1015 C   0  0  0  0  0  0
    6.5307   -9.4804    0.1505 H   0  0  0  0  0  0
    6.4683   -8.5149   -1.3061 H   0  0  0  0  0  0
    4.5112   -8.2423    0.0089 H   0  0  0  0  0  0
    5.2503   -6.4073   -1.3027 H   0  0  0  0  0  0
    4.4472   -5.8746    0.1565 H   0  0  0  0  0  0
    6.5788   -4.6167   -0.1885 H   0  0  0  0  0  0
    6.6219   -5.5196    1.3106 H   0  0  0  0  0  0
    7.9257   -7.7763    1.3071 H   0  0  0  0  0  0
    8.6846   -8.2610   -0.1940 H   0  0  0  0  0  0
    9.9359   -6.1235   -0.3093 H   0  0  0  0  0  0
    9.1952   -5.5369    1.1818 H   0  0  0  0  0  0
    9.0560   -4.6002   -0.3080 H   0  0  0  0  0  0
    7.7665   -6.3594   -1.2473 H   0  0  0  0  0  0
  1  2  1  0  0  0
  1  6  1  0  0  0
  1  8  1  0  0  0
  1  9  1  0  0  0
  2  3  1  0  0  0
  2 10  1  0  0  0
  3  4  1  0  0  0
  3 11  1  0  0  0
  3 12  1  0  0  0
  4  5  1  0  0  0
  4 13  1  0  0  0
  4 14  1  0  0  0
  5  6  1  0  0  0
  5  7  1  0  0  0
  5 20  1  0  0  0
  6 15  1  0  0  0
  6 16  1  0  0  0
  7 17  1  0  0  0
  7 18  1  0  0  0
  7 19  1  0  0  0
M  CHG  1   5   1
M  END
> <s_m_entry_name>
Schrodinger_fragment_71

> <i_m_number_of_atoms>
19

> <r_m_molecular_weight>
100.16479

> <s_m_molecular_formula>
C5H12N2

> <r_epik_Ionization_Penalty>
  0.0819

> <r_epik_Ionization_Penalty_Charging>
  0.0609

> <r_epik_Ionization_Penalty_Neutral>
  0.0210

> <r_epik_State_Penalty>
  1.1808

> <i_epik_Tot_Q>
1

> <r_epik_Metal_State_Penalty>
  1.1808

> <b_epik_Metal_Only>
0

> <s_m_entry_id>
4453

> <s_canvas_Unique_SMILES_Stereo>
C[N@H+]1CCNCC1

$$$$
Schrodinger_fragment_67_b
                    3D
 Structure written by MMmdl.
 19 19  0  0  1  0            999 V2000
    6.5417   -8.4813   -0.1877 C   0  0  0  0  0  0
    5.3350   -7.7666    0.2598 N   0  0  0  0  0  0
    5.3179   -6.3633   -0.1844 C   0  0  0  0  0  0
    6.6212   -5.6410    0.2178 C   0  0  0  0  0  0
    7.8147   -6.3331   -0.2772 N   0  0  0  0  0  0
    7.8188   -7.7139    0.2147 C   0  0  0  0  0  0
    9.0361   -5.6281    0.0999 C   0  0  0  0  0  0
    6.5649   -9.4877    0.2344 H   0  0  0  0  0  0
    6.5218   -8.6077   -1.2719 H   0  0  0  0  0  0
    4.5098   -8.2428   -0.1115 H   0  0  0  0  0  0
    5.1970   -6.3149   -1.2684 H   0  0  0  0  0  0
    4.4583   -5.8415    0.2400 H   0  0  0  0  0  0
    6.5949   -4.6206   -0.1696 H   0  0  0  0  0  0
    6.6632   -5.5500    1.3055 H   0  0  0  0  0  0
    7.9201   -7.7255    1.3022 H   0  0  0  0  0  0
    8.6893   -8.2455   -0.1750 H   0  0  0  0  0  0
    9.9184   -6.1335   -0.2962 H   0  0  0  0  0  0
    9.1438   -5.5673    1.1845 H   0  0  0  0  0  0
    9.0384   -4.6104   -0.2941 H   0  0  0  0  0  0
  1  2  1  0  0  0
  1  6  1  0  0  0
  1  8  1  0  0  0
  1  9  1  0  0  0
  2  3  1  0  0  0
  2 10  1  0  0  0
  3  4  1  0  0  0
  3 11  1  0  0  0
  3 12  1  0  0  0
  4  5  1  0  0  0
  4 13  1  0  0  0
  4 14  1  0  0  0
  5  6  1  0  0  0
  5  7  1  0  0  0
  6 15  1  0  0  0
  6 16  1  0  0  0
  7 17  1  0  0  0
  7 18  1  0  0  0
  7 19  1  0  0  0
M  END
> <s_m_entry_name>
Schrodinger_fragment_71

> <i_m_number_of_atoms>
19

> <r_m_molecular_weight>
100.16479

> <s_m_molecular_formula>
C5H12N2

> <r_epik_Ionization_Penalty>
  3.7890

> <r_epik_Ionization_Penalty_Charging>
  0.0000

> <r_epik_Ionization_Penalty_Neutral>
  3.7890

> <r_epik_State_Penalty>
  2.4979

> <i_epik_Tot_Q>
0

> <r_epik_Metal_State_Penalty>
  2.4979

> <b_epik_Metal_Only>
0

> <s_m_entry_id>
4454

> <s_canvas_Unique_SMILES_Stereo>
CN1CCNCC1

$$$$
Schrodinger_fragment_68
                    3D
 Structure written by MMmdl.
 23 23  0  0  1  0            999 V2000
    6.6436   -8.4195   -0.1756 C   0  0  0  0  0  0
    5.4289   -7.7113    0.2948 N   0  3  0  0  0  0
    5.4242   -6.3072   -0.1814 C   0  0  0  0  0  0
    6.7226   -5.5862    0.2388 C   0  0  0  0  0  0
    7.8902   -6.2920   -0.3034 N   0  0  0  0  0  0
    7.9163   -7.6540    0.2444 C   0  0  0  0  0  0
    4.1800   -8.4332   -0.0320 C   0  0  0  0  0  0
    9.1108   -5.5864    0.0776 C   0  0  0  0  0  0
    6.6687   -9.4258    0.2450 H   0  0  0  0  0  0
    6.6136   -8.5343   -1.2604 H   0  0  0  0  0  0
    5.3124   -6.2802   -1.2666 H   0  0  0  0  0  0
    4.5644   -5.7805    0.2349 H   0  0  0  0  0  0
    6.7016   -4.5627   -0.1402 H   0  0  0  0  0  0
    6.7818   -5.5143    1.3270 H   0  0  0  0  0  0
    8.0056   -7.6342    1.3328 H   0  0  0  0  0  0
    8.7931   -8.1855   -0.1304 H   0  0  0  0  0  0
    3.3132   -7.9167    0.3811 H   0  0  0  0  0  0
    4.1926   -9.4402    0.3860 H   0  0  0  0  0  0
    4.0421   -8.5163   -1.1106 H   0  0  0  0  0  0
    9.9928   -6.0929   -0.3184 H   0  0  0  0  0  0
    9.2216   -5.5200    1.1619 H   0  0  0  0  0  0
    9.1138   -4.5706   -0.3218 H   0  0  0  0  0  0
    5.4883   -7.6742    1.3007 H   0  0  0  0  0  0
  1  2  1  0  0  0
  1  6  1  0  0  0
  1  9  1  0  0  0
  1 10  1  0  0  0
  2  3  1  0  0  0
  2  7  1  0  0  0
  2 23  1  0  0  0
  3  4  1  0  0  0
  3 11  1  0  0  0
  3 12  1  0  0  0
  4  5  1  0  0  0
  4 13  1  0  0  0
  4 14  1  0  0  0
  5  6  1  0  0  0
  5  8  1  0  0  0
  6 15  1  0  0  0
  6 16  1  0  0  0
  7 17  1  0  0  0
  7 18  1  0  0  0
  7 19  1  0  0  0
  8 20  1  0  0  0
  8 21  1  0  0  0
  8 22  1  0  0  0
M  CHG  1   2   1
M  END
> <s_m_entry_name>
Schrodinger_fragment_75

> <i_m_number_of_atoms>
22

> <r_m_molecular_weight>
114.19188

> <s_m_molecular_formula>
C6H14N2

> <r_epik_Ionization_Penalty>
  0.0795

> <r_epik_Ionization_Penalty_Charging>
  0.0791

> <r_epik_Ionization_Penalty_Neutral>
  0.0004

> <r_epik_State_Penalty>
  0.0791

> <i_epik_Tot_Q>
1

> <r_epik_Metal_State_Penalty>
  0.0791

> <b_epik_Metal_Only>
0

> <s_m_entry_id>
4455

> <s_canvas_Unique_SMILES_Stereo>
CN1CC[N@H+](C)CC1

$$$$
Schrodinger_fragment_68_a
                    3D
 Structure written by MMmdl.
 22 22  0  0  1  0            999 V2000
    6.6175   -8.4064   -0.1657 C   0  0  0  0  0  0
    5.4221   -7.7148    0.3328 N   0  0  0  0  0  0
    5.4224   -6.3359   -0.1717 C   0  0  0  0  0  0
    6.7163   -5.5879    0.2162 C   0  0  0  0  0  0
    7.9116   -6.2796   -0.2822 N   0  0  0  0  0  0
    7.9114   -7.6585    0.2222 C   0  0  0  0  0  0
    4.2000   -8.4213   -0.0383 C   0  0  0  0  0  0
    9.1338   -5.5730    0.0888 C   0  0  0  0  0  0
    6.6569   -9.4204    0.2369 H   0  0  0  0  0  0
    6.5700   -8.5111   -1.2518 H   0  0  0  0  0  0
    5.3107   -6.3294   -1.2581 H   0  0  0  0  0  0
    4.5630   -5.7930    0.2264 H   0  0  0  0  0  0
    6.6769   -4.5739   -0.1863 H   0  0  0  0  0  0
    6.7638   -5.4832    1.3023 H   0  0  0  0  0  0
    8.0231   -7.6650    1.3086 H   0  0  0  0  0  0
    8.7708   -8.2014   -0.1759 H   0  0  0  0  0  0
    3.3187   -7.9132    0.3567 H   0  0  0  0  0  0
    4.1982   -9.4368    0.3611 H   0  0  0  0  0  0
    4.0901   -8.4879   -1.1223 H   0  0  0  0  0  0
   10.0151   -6.0811   -0.3063 H   0  0  0  0  0  0
    9.2438   -5.5064    1.1728 H   0  0  0  0  0  0
    9.1356   -4.5575   -0.3107 H   0  0  0  0  0  0
  1  2  1  0  0  0
  1  6  1  0  0  0
  1  9  1  0  0  0
  1 10  1  0  0  0
  2  3  1  0  0  0
  2  7  1  0  0  0
  3  4  1  0  0  0
  3 11  1  0  0  0
  3 12  1  0  0  0
  4  5  1  0  0  0
  4 13  1  0  0  0
  4 14  1  0  0  0
  5  6  1  0  0  0
  5  8  1  0  0  0
  6 15  1  0  0  0
  6 16  1  0  0  0
  7 17  1  0  0  0
  7 18  1  0  0  0
  7 19  1  0  0  0
  8 20  1  0  0  0
  8 21  1  0  0  0
  8 22  1  0  0  0
M  END
> <s_m_entry_name>
Schrodinger_fragment_75

> <i_m_number_of_atoms>
22

> <r_m_molecular_weight>
114.19188

> <s_m_molecular_formula>
C6H14N2

> <r_epik_Ionization_Penalty>
  2.4647

> <r_epik_Ionization_Penalty_Charging>
  0.0000

> <r_epik_Ionization_Penalty_Neutral>
  2.4647

> <r_epik_State_Penalty>
  1.2324

> <i_epik_Tot_Q>
0

> <r_epik_Metal_State_Penalty>
  1.2324

> <b_epik_Metal_Only>
0

> <s_m_entry_id>
4456

> <s_canvas_Unique_SMILES_Stereo>
CN1CCN(C)CC1

$$$$
Schrodinger_fragment_69
                    3D
 Structure written by MMmdl.
 22 22  0  0  1  0            999 V2000
    6.9311   -8.3021   -0.4736 C   0  0  0  0  0  0
    5.6337   -7.6345   -0.2752 N   0  0  0  0  0  0
    5.6782   -6.1862   -0.5420 C   0  0  0  0  0  0
    6.7769   -5.5031    0.2974 C   0  0  0  0  0  0
    8.0337   -7.6311    0.3687 C   0  0  0  0  0  0
    4.5384   -8.3081    0.1546 C   0  0  0  0  0  0
    3.2199   -7.5616    0.3483 C   0  0  0  0  0  0
    4.5553   -9.5179    0.3983 O   0  0  0  0  0  0
    6.9057   -9.3665   -0.2354 H   0  0  0  0  0  0
    7.1873   -8.2471   -1.5324 H   0  0  0  0  0  0
    5.8829   -6.0426   -1.6038 H   0  0  0  0  0  0
    4.7354   -5.6729   -0.3600 H   0  0  0  0  0  0
    6.8708   -4.4530    0.0182 H   0  0  0  0  0  0
    6.4982   -5.5204    1.3520 H   0  0  0  0  0  0
    7.8506   -7.8149    1.4284 H   0  0  0  0  0  0
    9.0061   -8.0691    0.1407 H   0  0  0  0  0  0
    2.4336   -8.2464    0.6661 H   0  0  0  0  0  0
    2.8982   -7.0975   -0.5839 H   0  0  0  0  0  0
    3.3203   -6.7934    1.1149 H   0  0  0  0  0  0
    8.0839   -6.1730    0.1367 N   0  3  0  0  0  0
    8.4255   -6.0029   -0.7953 H   0  0  0  0  0  0
    8.7472   -5.7601    0.7731 H   0  0  0  0  0  0
  1  2  1  0  0  0
  1  5  1  0  0  0
  1  9  1  0  0  0
  1 10  1  0  0  0
  2  3  1  0  0  0
  2  6  1  0  0  0
  3  4  1  0  0  0
  3 11  1  0  0  0
  3 12  1  0  0  0
  4 13  1  0  0  0
  4 14  1  0  0  0
  4 20  1  0  0  0
  5 15  1  0  0  0
  5 16  1  0  0  0
  5 20  1  0  0  0
  6  7  1  0  0  0
  6  8  2  0  0  0
  7 17  1  0  0  0
  7 18  1  0  0  0
  7 19  1  0  0  0
 20 21  1  0  0  0
 20 22  1  0  0  0
M  CHG  1  20   1
M  END
> <s_m_entry_name>
Schrodinger_fragment_78

> <i_m_number_of_atoms>
22

> <r_m_molecular_weight>
129.18331

> <s_m_molecular_formula>
C6H13N2O1

> <r_epik_Ionization_Penalty>
  0.7603

> <r_epik_Ionization_Penalty_Charging>
  0.7603

> <r_epik_Ionization_Penalty_Neutral>
  0.0000

> <r_epik_State_Penalty>
  0.3802

> <i_epik_Tot_Q>
1

> <r_epik_Metal_State_Penalty>
  0.3802

> <b_epik_Metal_Only>
0

> <s_m_entry_id>
4457

> <s_canvas_Unique_SMILES_Stereo>
CC(=O)N1CC[NH2+]CC1

$$$$
Schrodinger_fragment_69_a
                    3D
 Structure written by MMmdl.
 21 21  0  0  1  0            999 V2000
    6.9380   -8.2891   -0.4490 C   0  0  0  0  0  0
    5.6355   -7.6333   -0.2568 N   0  0  0  0  0  0
    5.6905   -6.1850   -0.5129 C   0  0  0  0  0  0
    6.8163   -5.5315    0.3114 C   0  0  0  0  0  0
    8.0298   -7.5806    0.3750 C   0  0  0  0  0  0
    4.5318   -8.3131    0.1363 C   0  0  0  0  0  0
    3.2115   -7.5664    0.3190 C   0  0  0  0  0  0
    4.5395   -9.5286    0.3527 O   0  0  0  0  0  0
    6.9222   -9.3442   -0.1707 H   0  0  0  0  0  0
    7.1871   -8.2699   -1.5111 H   0  0  0  0  0  0
    5.8591   -6.0267   -1.5792 H   0  0  0  0  0  0
    4.7593   -5.6669   -0.2873 H   0  0  0  0  0  0
    6.8788   -4.4684    0.0724 H   0  0  0  0  0  0
    6.5983   -5.6000    1.3791 H   0  0  0  0  0  0
    7.8345   -7.6900    1.4437 H   0  0  0  0  0  0
    8.9976   -8.0475    0.1839 H   0  0  0  0  0  0
    2.4147   -8.2559    0.5982 H   0  0  0  0  0  0
    2.9146   -7.0741   -0.6070 H   0  0  0  0  0  0
    3.2972   -6.8205    1.1091 H   0  0  0  0  0  0
    8.0978   -6.1666    0.0161 N   0  0  0  0  0  0
    8.2694   -6.0962   -0.9854 H   0  0  0  0  0  0
  1  2  1  0  0  0
  1  5  1  0  0  0
  1  9  1  0  0  0
  1 10  1  0  0  0
  2  3  1  0  0  0
  2  6  1  0  0  0
  3  4  1  0  0  0
  3 11  1  0  0  0
  3 12  1  0  0  0
  4 13  1  0  0  0
  4 14  1  0  0  0
  4 20  1  0  0  0
  5 15  1  0  0  0
  5 16  1  0  0  0
  5 20  1  0  0  0
  6  7  1  0  0  0
  6  8  2  0  0  0
  7 17  1  0  0  0
  7 18  1  0  0  0
  7 19  1  0  0  0
 20 21  1  0  0  0
M  END
> <s_m_entry_name>
Schrodinger_fragment_78

> <i_m_number_of_atoms>
22

> <r_m_molecular_weight>
129.18331

> <s_m_molecular_formula>
C6H13N2O1

> <r_epik_Ionization_Penalty>
  0.4428

> <r_epik_Ionization_Penalty_Charging>
  0.0000

> <r_epik_Ionization_Penalty_Neutral>
  0.4428

> <r_epik_State_Penalty>
  0.4428

> <i_epik_Tot_Q>
0

> <r_epik_Metal_State_Penalty>
  0.4428

> <b_epik_Metal_Only>
0

> <s_m_entry_id>
4458

> <s_canvas_Unique_SMILES_Stereo>
CC(=O)N1CCNCC1

$$$$
Schrodinger_fragment_70
                    3D
 Structure written by MMmdl.
 24 24  0  0  1  0            999 V2000
    6.8379   -8.3514   -0.5129 C   0  0  0  0  0  0
    5.5462   -7.6891   -0.2812 N   0  0  0  0  0  0
    5.5957   -6.2525   -0.5933 C   0  0  0  0  0  0
    6.7407   -5.5721    0.1805 C   0  0  0  0  0  0
    7.9600   -7.6333    0.2597 C   0  0  0  0  0  0
    4.4672   -8.3461    0.2064 C   0  0  0  0  0  0
    3.1621   -7.5857    0.4349 C   0  0  0  0  0  0
    4.4864   -9.5508    0.4756 O   0  0  0  0  0  0
    9.0913   -5.5583    0.5997 C   0  0  0  0  0  0
    6.8298   -9.4036   -0.2241 H   0  0  0  0  0  0
    7.0504   -8.3411   -1.5830 H   0  0  0  0  0  0
    5.7484   -6.1356   -1.6673 H   0  0  0  0  0  0
    4.6690   -5.7248   -0.3729 H   0  0  0  0  0  0
    6.7866   -4.5164   -0.0941 H   0  0  0  0  0  0
    6.5409   -5.6103    1.2537 H   0  0  0  0  0  0
    7.7934   -7.7289    1.3350 H   0  0  0  0  0  0
    8.9151   -8.1162    0.0445 H   0  0  0  0  0  0
    2.3841   -8.2568    0.7987 H   0  0  0  0  0  0
    2.8075   -7.1395   -0.4942 H   0  0  0  0  0  0
    3.2987   -6.8011    1.1789 H   0  0  0  0  0  0
   10.0552   -6.0187    0.3762 H   0  0  0  0  0  0
    8.9386   -5.6074    1.6797 H   0  0  0  0  0  0
    9.1604   -4.5061    0.3184 H   0  0  0  0  0  0
    8.0159   -6.2224   -0.1304 N   0  0  0  0  0  0
  1  2  1  0  0  0
  1  5  1  0  0  0
  1 10  1  0  0  0
  1 11  1  0  0  0
  2  3  1  0  0  0
  2  6  1  0  0  0
  3  4  1  0  0  0
  3 12  1  0  0  0
  3 13  1  0  0  0
  4 14  1  0  0  0
  4 15  1  0  0  0
  4 24  1  0  0  0
  5 16  1  0  0  0
  5 17  1  0  0  0
  5 24  1  0  0  0
  6  7  1  0  0  0
  6  8  2  0  0  0
  7 18  1  0  0  0
  7 19  1  0  0  0
  7 20  1  0  0  0
  9 21  1  0  0  0
  9 22  1  0  0  0
  9 23  1  0  0  0
  9 24  1  0  0  0
M  END
> <s_m_entry_name>
Schrodinger_fragment_79

> <i_m_number_of_atoms>
25

> <r_m_molecular_weight>
143.2104

> <s_m_molecular_formula>
C7H15N2O1

> <r_epik_Ionization_Penalty>
  0.1900

> <r_epik_Ionization_Penalty_Charging>
  0.0000

> <r_epik_Ionization_Penalty_Neutral>
  0.1900

> <r_epik_State_Penalty>
  0.1900

> <i_epik_Tot_Q>
0

> <r_epik_Metal_State_Penalty>
  0.1900

> <b_epik_Metal_Only>
0

> <s_m_entry_id>
4459

> <s_canvas_Unique_SMILES_Stereo>
CC(=O)N1CCN(C)CC1

$$$$
Schrodinger_fragment_70_a
                    3D
 Structure written by MMmdl.
 25 25  0  0  1  0            999 V2000
    6.8262   -8.3660   -0.5339 C   0  0  0  0  0  0
    5.5418   -7.6905   -0.2934 N   0  0  0  0  0  0
    5.5775   -6.2553   -0.6174 C   0  0  0  0  0  0
    6.7144   -5.5457    0.1436 C   0  0  0  0  0  0
    7.9684   -7.6702    0.2303 C   0  0  0  0  0  0
    4.4694   -8.3435    0.2182 C   0  0  0  0  0  0
    3.1649   -7.5846    0.4540 C   0  0  0  0  0  0
    4.4970   -9.5435    0.5054 O   0  0  0  0  0  0
    9.1243   -5.5368    0.6567 C   0  0  0  0  0  0
    6.8113   -9.4216   -0.2591 H   0  0  0  0  0  0
    7.0298   -8.3474   -1.6053 H   0  0  0  0  0  0
    5.7326   -6.1526   -1.6923 H   0  0  0  0  0  0
    4.6449   -5.7324   -0.4116 H   0  0  0  0  0  0
    6.7797   -4.5063   -0.1811 H   0  0  0  0  0  0
    6.4809   -5.5243    1.2094 H   0  0  0  0  0  0
    7.8337   -7.8209    1.3027 H   0  0  0  0  0  0
    8.9205   -8.1339   -0.0318 H   0  0  0  0  0  0
    2.3956   -8.2534    0.8402 H   0  0  0  0  0  0
    2.7940   -7.1556   -0.4768 H   0  0  0  0  0  0
    3.3085   -6.7878    1.1836 H   0  0  0  0  0  0
   10.0832   -6.0018    0.4261 H   0  0  0  0  0  0
    8.9797   -5.5783    1.7368 H   0  0  0  0  0  0
    9.1900   -4.4883    0.3647 H   0  0  0  0  0  0
    8.0220   -6.2165   -0.0593 N   0  3  0  0  0  0
    8.2381   -6.1293   -1.0415 H   0  0  0  0  0  0
  1  2  1  0  0  0
  1  5  1  0  0  0
  1 10  1  0  0  0
  1 11  1  0  0  0
  2  3  1  0  0  0
  2  6  1  0  0  0
  3  4  1  0  0  0
  3 12  1  0  0  0
  3 13  1  0  0  0
  4 14  1  0  0  0
  4 15  1  0  0  0
  4 24  1  0  0  0
  5 16  1  0  0  0
  5 17  1  0  0  0
  5 24  1  0  0  0
  6  7  1  0  0  0
  6  8  2  0  0  0
  7 18  1  0  0  0
  7 19  1  0  0  0
  7 20  1  0  0  0
  9 21  1  0  0  0
  9 22  1  0  0  0
  9 23  1  0  0  0
  9 24  1  0  0  0
 24 25  1  0  0  0
M  CHG  1  24   1
M  END
> <s_m_entry_name>
Schrodinger_fragment_79

> <i_m_number_of_atoms>
25

> <r_m_molecular_weight>
143.2104

> <s_m_molecular_formula>
C7H15N2O1

> <r_epik_Ionization_Penalty>
  0.7663

> <r_epik_Ionization_Penalty_Charging>
  0.7663

> <r_epik_Ionization_Penalty_Neutral>
  0.0000

> <r_epik_State_Penalty>
  0.7663

> <i_epik_Tot_Q>
1

> <r_epik_Metal_State_Penalty>
  0.7663

> <b_epik_Metal_Only>
0

> <s_m_entry_id>
4460

> <s_canvas_Unique_SMILES_Stereo>
CC(=O)N1CC[NH+](C)CC1

$$$$
Schrodinger_fragment_71
                    3D
 Structure written by MMmdl.
 22 22  0  0  1  0            999 V2000
    5.9024   -6.2451    1.3379 C   0  0  0  0  0  0
    5.7959   -7.6819    1.0043 N   0  0  0  0  0  0
    7.0192   -8.2694    0.4166 C   0  0  0  0  0  0
    7.6072   -7.3710   -0.6911 C   0  0  0  0  0  0
    6.5415   -5.4391    0.1881 C   0  0  0  0  0  0
    4.2573   -8.3220    0.5461 S   0  0  0  0  0  0
    4.0007   -7.6973   -1.1376 C   0  0  0  0  0  0
    3.2477   -7.7190    1.4292 O   0  0  0  0  0  0
    4.3879   -9.7858    0.4885 O   0  0  0  0  0  0
    4.9207   -5.8348    1.5788 H   0  0  0  0  0  0
    6.4998   -6.1394    2.2446 H   0  0  0  0  0  0
    7.7544   -8.4136    1.2096 H   0  0  0  0  0  0
    6.8123   -9.2637    0.0182 H   0  0  0  0  0  0
    8.5585   -7.7868   -1.0280 H   0  0  0  0  0  0
    6.9566   -7.3460   -1.5662 H   0  0  0  0  0  0
    5.8804   -5.3950   -0.6783 H   0  0  0  0  0  0
    6.6943   -4.4075    0.5101 H   0  0  0  0  0  0
    3.0418   -8.0613   -1.5000 H   0  0  0  0  0  0
    4.7865   -8.0632   -1.7921 H   0  0  0  0  0  0
    3.9855   -6.6112   -1.1313 H   0  0  0  0  0  0
    7.8279   -6.0181   -0.1882 N   0  0  0  0  0  0
    8.3877   -6.0943    0.6576 H   0  0  0  0  0  0
  1  2  1  0  0  0
  1  5  1  0  0  0
  1 10  1  0  0  0
  1 11  1  0  0  0
  2  3  1  0  0  0
  2  6  1  0  0  0
  3  4  1  0  0  0
  3 12  1  0  0  0
  3 13  1  0  0  0
  4 14  1  0  0  0
  4 15  1  0  0  0
  4 21  1  0  0  0
  5 16  1  0  0  0
  5 17  1  0  0  0
  5 21  1  0  0  0
  6  7  1  0  0  0
  6  8  2  0  0  0
  6  9  2  0  0  0
  7 18  1  0  0  0
  7 19  1  0  0  0
  7 20  1  0  0  0
 21 22  1  0  0  0
M  END
> <s_m_entry_name>
Schrodinger_fragment_80

> <i_m_number_of_atoms>
23

> <r_m_molecular_weight>
165.23556

> <s_m_molecular_formula>
C5H13N2O2S1

> <r_epik_Ionization_Penalty>
  0.2007

> <r_epik_Ionization_Penalty_Charging>
  0.0000

> <r_epik_Ionization_Penalty_Neutral>
  0.2007

> <r_epik_State_Penalty>
  0.2007

> <i_epik_Tot_Q>
0

> <r_epik_Metal_State_Penalty>
  0.2007

> <b_epik_Metal_Only>
0

> <s_m_entry_id>
4461

> <s_canvas_Unique_SMILES_Stereo>
CS(=O)(=O)N1CCNCC1

$$$$
Schrodinger_fragment_71_a
                    3D
 Structure written by MMmdl.
 23 23  0  0  1  0            999 V2000
    5.9088   -6.2498    1.3568 C   0  0  0  0  0  0
    5.7846   -7.6780    0.9823 N   0  0  0  0  0  0
    7.0259   -8.2737    0.4349 C   0  0  0  0  0  0
    7.6216   -7.4047   -0.6915 C   0  0  0  0  0  0
    6.5243   -5.4167    0.2140 C   0  0  0  0  0  0
    4.2455   -8.3181    0.5224 S   0  0  0  0  0  0
    3.9829   -7.6960   -1.1619 C   0  0  0  0  0  0
    3.2369   -7.7145    1.4062 O   0  0  0  0  0  0
    4.3779   -9.7816    0.4649 O   0  0  0  0  0  0
    4.9363   -5.8416    1.6340 H   0  0  0  0  0  0
    6.5313   -6.1732    2.2491 H   0  0  0  0  0  0
    7.7502   -8.3815    1.2433 H   0  0  0  0  0  0
    6.8355   -9.2825    0.0668 H   0  0  0  0  0  0
    8.5871   -7.8074   -1.0001 H   0  0  0  0  0  0
    6.9854   -7.4248   -1.5760 H   0  0  0  0  0  0
    5.8357   -5.3418   -0.6273 H   0  0  0  0  0  0
    6.7042   -4.3960    0.5538 H   0  0  0  0  0  0
    3.0225   -8.0646   -1.5163 H   0  0  0  0  0  0
    4.7602   -8.0653   -1.8243 H   0  0  0  0  0  0
    3.9572   -6.6103   -1.1617 H   0  0  0  0  0  0
    7.7981   -6.0097   -0.2403 N   0  3  0  0  0  0
    8.4658   -5.9841    0.5124 H   0  0  0  0  0  0
    8.1693   -5.4599   -0.9977 H   0  0  0  0  0  0
  1  2  1  0  0  0
  1  5  1  0  0  0
  1 10  1  0  0  0
  1 11  1  0  0  0
  2  3  1  0  0  0
  2  6  1  0  0  0
  3  4  1  0  0  0
  3 12  1  0  0  0
  3 13  1  0  0  0
  4 14  1  0  0  0
  4 15  1  0  0  0
  4 21  1  0  0  0
  5 16  1  0  0  0
  5 17  1  0  0  0
  5 21  1  0  0  0
  6  7  1  0  0  0
  6  8  2  0  0  0
  6  9  2  0  0  0
  7 18  1  0  0  0
  7 19  1  0  0  0
  7 20  1  0  0  0
 21 22  1  0  0  0
 21 23  1  0  0  0
M  CHG  1  21   1
M  END
> <s_m_entry_name>
Schrodinger_fragment_80

> <i_m_number_of_atoms>
23

> <r_m_molecular_weight>
165.23556

> <s_m_molecular_formula>
C5H13N2O2S1

> <r_epik_Ionization_Penalty>
  1.4779

> <r_epik_Ionization_Penalty_Charging>
  1.4779

> <r_epik_Ionization_Penalty_Neutral>
  0.0000

> <r_epik_State_Penalty>
  0.7389

> <i_epik_Tot_Q>
1

> <r_epik_Metal_State_Penalty>
  0.7389

> <b_epik_Metal_Only>
0

> <s_m_entry_id>
4462

> <s_canvas_Unique_SMILES_Stereo>
CS(=O)(=O)N1CC[NH2+]CC1

$$$$
Schrodinger_fragment_72
                    3D
 Structure written by MMmdl.
 25 25  0  0  1  0            999 V2000
    5.6476   -6.0343    0.7449 C   0  0  0  0  0  0
    5.5310   -7.5081    0.7146 N   0  0  0  0  0  0
    6.8103   -8.1689    1.0453 C   0  0  0  0  0  0
    7.9499   -7.6445    0.1490 C   0  0  0  0  0  0
    6.8331   -5.5413   -0.1141 C   0  0  0  0  0  0
    4.5998   -8.2051   -0.5628 S   0  0  0  0  0  0
    2.9070   -7.6649   -0.1922 C   0  0  0  0  0  0
    9.1787   -5.7122   -0.5327 C   0  0  0  0  0  0
    4.6506   -9.6652   -0.3952 O   0  0  0  0  0  0
    5.0402   -7.6013   -1.8286 O   0  0  0  0  0  0
    4.7220   -5.5718    0.4034 H   0  0  0  0  0  0
    5.7830   -5.7115    1.7781 H   0  0  0  0  0  0
    7.0476   -7.9814    2.0935 H   0  0  0  0  0  0
    6.7193   -9.2513    0.9485 H   0  0  0  0  0  0
    8.8849   -8.1306    0.4344 H   0  0  0  0  0  0
    7.7646   -7.9101   -0.8941 H   0  0  0  0  0  0
    6.6396   -5.7254   -1.1724 H   0  0  0  0  0  0
    6.9296   -4.4594   -0.0039 H   0  0  0  0  0  0
    2.2243   -8.1543   -0.8836 H   0  0  0  0  0  0
    2.8186   -6.5887   -0.3129 H   0  0  0  0  0  0
    2.6522   -7.9482    0.8265 H   0  0  0  0  0  0
    9.3003   -4.6325   -0.4312 H   0  0  0  0  0  0
    9.0139   -5.9334   -1.5892 H   0  0  0  0  0  0
   10.1216   -6.1749   -0.2365 H   0  0  0  0  0  0
    8.0797   -6.1924    0.2994 N   0  0  0  0  0  0
  1  2  1  0  0  0
  1  5  1  0  0  0
  1 11  1  0  0  0
  1 12  1  0  0  0
  2  3  1  0  0  0
  2  6  1  0  0  0
  3  4  1  0  0  0
  3 13  1  0  0  0
  3 14  1  0  0  0
  4 15  1  0  0  0
  4 16  1  0  0  0
  4 25  1  0  0  0
  5 17  1  0  0  0
  5 18  1  0  0  0
  5 25  1  0  0  0
  6  7  1  0  0  0
  6  9  2  0  0  0
  6 10  2  0  0  0
  7 19  1  0  0  0
  7 20  1  0  0  0
  7 21  1  0  0  0
  8 22  1  0  0  0
  8 23  1  0  0  0
  8 24  1  0  0  0
  8 25  1  0  0  0
M  END
> <s_m_entry_name>
Schrodinger_fragment_81

> <i_m_number_of_atoms>
26

> <r_m_molecular_weight>
179.26265

> <s_m_molecular_formula>
C6H15N2O2S1

> <r_epik_Ionization_Penalty>
  0.2329

> <r_epik_Ionization_Penalty_Charging>
  0.0000

> <r_epik_Ionization_Penalty_Neutral>
  0.2329

> <r_epik_State_Penalty>
  0.2329

> <i_epik_Tot_Q>
0

> <r_epik_Metal_State_Penalty>
  0.2329

> <b_epik_Metal_Only>
0

> <s_m_entry_id>
4463

> <s_canvas_Unique_SMILES_Stereo>
CN1CCN(CC1)S(=O)(=O)C

$$$$
Schrodinger_fragment_72_a
                    3D
 Structure written by MMmdl.
 26 26  0  0  1  0            999 V2000
    5.6422   -6.0329    0.7591 C   0  0  0  0  0  0
    5.5271   -7.5089    0.7115 N   0  0  0  0  0  0
    6.8042   -8.1694    1.0593 C   0  0  0  0  0  0
    7.9419   -7.6744    0.1455 C   0  0  0  0  0  0
    6.8072   -5.5262   -0.1198 C   0  0  0  0  0  0
    4.5927   -8.2106   -0.5630 S   0  0  0  0  0  0
    2.8998   -7.6700   -0.1953 C   0  0  0  0  0  0
    9.2311   -5.6886   -0.5448 C   0  0  0  0  0  0
    4.6476   -9.6700   -0.3915 O   0  0  0  0  0  0
    5.0380   -7.6086   -1.8278 O   0  0  0  0  0  0
    4.7087   -5.5692    0.4418 H   0  0  0  0  0  0
    5.7942   -5.7217    1.7935 H   0  0  0  0  0  0
    7.0432   -7.9626    2.1034 H   0  0  0  0  0  0
    6.7058   -9.2530    0.9863 H   0  0  0  0  0  0
    8.8771   -8.1493    0.4459 H   0  0  0  0  0  0
    7.7596   -7.9743   -0.8877 H   0  0  0  0  0  0
    6.5884   -5.6759   -1.1772 H   0  0  0  0  0  0
    6.9156   -4.4493    0.0169 H   0  0  0  0  0  0
    2.2182   -8.1613   -0.8864 H   0  0  0  0  0  0
    2.8106   -6.5942   -0.3185 H   0  0  0  0  0  0
    2.6437   -7.9519    0.8236 H   0  0  0  0  0  0
    9.3421   -4.6119   -0.4127 H   0  0  0  0  0  0
    9.1089   -5.8874   -1.6101 H   0  0  0  0  0  0
   10.1605   -6.1561   -0.2184 H   0  0  0  0  0  0
    8.0808   -6.2004    0.2327 N   0  3  0  0  0  0
    8.2699   -5.9818    1.1994 H   0  0  0  0  0  0
  1  2  1  0  0  0
  1  5  1  0  0  0
  1 11  1  0  0  0
  1 12  1  0  0  0
  2  3  1  0  0  0
  2  6  1  0  0  0
  3  4  1  0  0  0
  3 13  1  0  0  0
  3 14  1  0  0  0
  4 15  1  0  0  0
  4 16  1  0  0  0
  4 25  1  0  0  0
  5 17  1  0  0  0
  5 18  1  0  0  0
  5 25  1  0  0  0
  6  7  1  0  0  0
  6  9  2  0  0  0
  6 10  2  0  0  0
  7 19  1  0  0  0
  7 20  1  0  0  0
  7 21  1  0  0  0
  8 22  1  0  0  0
  8 23  1  0  0  0
  8 24  1  0  0  0
  8 25  1  0  0  0
 25 26  1  0  0  0
M  CHG  1  25   1
M  END
> <s_m_entry_name>
Schrodinger_fragment_81

> <i_m_number_of_atoms>
26

> <r_m_molecular_weight>
179.26265

> <s_m_molecular_formula>
C6H15N2O2S1

> <r_epik_Ionization_Penalty>
  0.6659

> <r_epik_Ionization_Penalty_Charging>
  0.6659

> <r_epik_Ionization_Penalty_Neutral>
  0.0000

> <r_epik_State_Penalty>
  0.6659

> <i_epik_Tot_Q>
1

> <r_epik_Metal_State_Penalty>
  0.6659

> <b_epik_Metal_Only>
0

> <s_m_entry_id>
4464

> <s_canvas_Unique_SMILES_Stereo>
C1C[NH+](C)CCN1S(=O)(=O)C

$$$$
Schrodinger_fragment_73
                    3D
 Structure written by MMmdl.
 11 11  0  0  1  0            999 V2000
    0.0167   -0.6367    0.0193 C   0  0  0  0  0  0
    0.0646   -2.0407    0.0185 C   0  0  0  0  0  0
    1.2223   -2.7365    0.0214 N   0  0  0  0  0  0
    2.3806   -2.0418    0.0252 C   0  0  0  0  0  0
    2.4299   -0.6379    0.0262 C   0  0  0  0  0  0
    1.2236    0.0829    0.0233 C   0  0  0  0  0  0
   -0.9343   -0.1219    0.0169 H   0  0  0  0  0  0
   -0.8466   -2.6206    0.0155 H   0  0  0  0  0  0
    3.2913   -2.6226    0.0274 H   0  0  0  0  0  0
    3.3814   -0.1241    0.0293 H   0  0  0  0  0  0
    1.2242    1.1635    0.0240 H   0  0  0  0  0  0
  1  2  2  0  0  0
  1  6  1  0  0  0
  1  7  1  0  0  0
  2  3  1  0  0  0
  2  8  1  0  0  0
  3  4  2  0  0  0
  4  5  1  0  0  0
  4  9  1  0  0  0
  5  6  2  0  0  0
  5 10  1  0  0  0
  6 11  1  0  0  0
M  END
> <s_m_entry_name>
Schrodinger_fragment_82

> <i_m_number_of_atoms>
11

> <r_m_molecular_weight>
79.1023

> <s_m_molecular_formula>
C5H5N1

> <r_epik_Ionization_Penalty>
  0.0072

> <r_epik_Ionization_Penalty_Charging>
  0.0000

> <r_epik_Ionization_Penalty_Neutral>
  0.0072

> <r_epik_State_Penalty>
  0.0072

> <i_epik_Tot_Q>
0

> <r_epik_Metal_State_Penalty>
  0.0000

> <b_epik_Metal_Only>
0

> <s_m_entry_id>
4465

> <s_canvas_Unique_SMILES_Stereo>
c1ccncc1

$$$$
Schrodinger_fragment_73_a
                    3D
 Structure written by MMmdl.
 12 12  0  0  1  0            999 V2000
    0.0064   -0.6415    0.0193 C   0  0  0  0  0  0
    0.0326   -2.0518    0.0184 C   0  0  0  0  0  0
    1.2192   -2.6987    0.0214 N   0  3  0  0  0  0
    2.4078   -2.0554    0.0252 C   0  0  0  0  0  0
    2.4382   -0.6452    0.0263 C   0  0  0  0  0  0
    1.2234    0.0717    0.0232 C   0  0  0  0  0  0
   -0.9363   -0.1122    0.0169 H   0  0  0  0  0  0
   -0.8520   -2.6745    0.0155 H   0  0  0  0  0  0
    3.2905   -2.6807    0.0274 H   0  0  0  0  0  0
    3.3825   -0.1187    0.0293 H   0  0  0  0  0  0
    1.2250    1.1528    0.0240 H   0  0  0  0  0  0
    1.2177   -3.7214    0.0207 H   0  0  0  0  0  0
  1  2  2  0  0  0
  1  6  1  0  0  0
  1  7  1  0  0  0
  2  3  1  0  0  0
  2  8  1  0  0  0
  3  4  2  0  0  0
  3 12  1  0  0  0
  4  5  1  0  0  0
  4  9  1  0  0  0
  5  6  2  0  0  0
  5 10  1  0  0  0
  6 11  1  0  0  0
M  CHG  1   3   1
M  END
> <s_m_entry_name>
Schrodinger_fragment_82

> <i_m_number_of_atoms>
11

> <r_m_molecular_weight>
79.1023

> <s_m_molecular_formula>
C5H5N1

> <r_epik_Ionization_Penalty>
  2.6130

> <r_epik_Ionization_Penalty_Charging>
  2.6130

> <r_epik_Ionization_Penalty_Neutral>
  0.0000

> <r_epik_State_Penalty>
  2.6130

> <i_epik_Tot_Q>
1

> <r_epik_Metal_State_Penalty>
  6.6985

> <b_epik_Metal_Only>
0

> <s_m_entry_id>
4466

> <s_canvas_Unique_SMILES_Stereo>
c1cc[nH+]cc1

$$$$
Schrodinger_fragment_74
                    3D
 Structure written by MMmdl.
  9  9  0  0  1  0            999 V2000
    5.7017    4.4503    0.0184 C   0  0  0  0  0  0
    7.1245    4.4257    0.0194 C   0  0  0  0  0  0
    5.2991    3.1443    0.0216 C   0  0  0  0  0  0
    6.3763    2.3101    0.0244 O   0  0  0  0  0  0
    7.4816    3.1065    0.0230 C   0  0  0  0  0  0
    5.0514    5.3148    0.0158 H   0  0  0  0  0  0
    7.8043    5.2672    0.0176 H   0  0  0  0  0  0
    4.3321    2.6581    0.0223 H   0  0  0  0  0  0
    8.4313    2.5871    0.0250 H   0  0  0  0  0  0
  1  2  1  0  0  0
  1  3  2  0  0  0
  1  6  1  0  0  0
  2  5  2  0  0  0
  2  7  1  0  0  0
  3  4  1  0  0  0
  3  8  1  0  0  0
  4  5  1  0  0  0
  5  9  1  0  0  0
M  END
> <s_m_entry_name>
Schrodinger_fragment_84

> <i_m_number_of_atoms>
9

> <r_m_molecular_weight>
68.07588

> <s_m_molecular_formula>
C4H4O1

> <r_epik_Ionization_Penalty>
  0.0000

> <r_epik_Ionization_Penalty_Charging>
  0.0000

> <r_epik_Ionization_Penalty_Neutral>
  0.0000

> <r_epik_State_Penalty>
  0.0000

> <i_epik_Tot_Q>
0

> <r_epik_Metal_State_Penalty>
  0.0000

> <b_epik_Metal_Only>
0

> <s_m_entry_id>
4467

> <s_canvas_Unique_SMILES_Stereo>
c1ccoc1

$$$$
Schrodinger_fragment_75
                    3D
 Structure written by MMmdl.
  9  9  0  0  1  0            999 V2000
    6.4468   -0.0483    0.0176 C   0  0  0  0  0  0
    7.8725   -0.0726    0.0188 C   0  0  0  0  0  0
    5.8955   -1.3036    0.0219 C   0  0  0  0  0  0
    7.1173   -2.5461    0.0277 S   0  0  0  0  0  0
    8.3808   -1.3459    0.0241 C   0  0  0  0  0  0
    5.8845    0.8765    0.0136 H   0  0  0  0  0  0
    8.4659    0.8325    0.0158 H   0  0  0  0  0  0
    4.8442   -1.5745    0.0222 H   0  0  0  0  0  0
    9.4222   -1.6525    0.0260 H   0  0  0  0  0  0
  1  2  1  0  0  0
  1  3  2  0  0  0
  1  6  1  0  0  0
  2  5  2  0  0  0
  2  7  1  0  0  0
  3  4  1  0  0  0
  3  8  1  0  0  0
  4  5  1  0  0  0
  5  9  1  0  0  0
M  END
> <s_m_entry_name>
Schrodinger_fragment_85

> <i_m_number_of_atoms>
9

> <r_m_molecular_weight>
84.14048

> <s_m_molecular_formula>
C4H4S1

> <r_epik_Ionization_Penalty>
  0.0000

> <r_epik_Ionization_Penalty_Charging>
  0.0000

> <r_epik_Ionization_Penalty_Neutral>
  0.0000

> <r_epik_State_Penalty>
  0.0000

> <i_epik_Tot_Q>
0

> <r_epik_Metal_State_Penalty>
  0.0000

> <b_epik_Metal_Only>
0

> <s_m_entry_id>
4468

> <s_canvas_Unique_SMILES_Stereo>
c1ccsc1

$$$$
Schrodinger_fragment_76
                    3D
 Structure written by MMmdl.
  9  9  0  0  1  0            999 V2000
    1.5130   -7.2524    0.0213 C   0  0  0  0  0  0
    1.4961   -5.8757    0.0195 C   0  0  0  0  0  0
    2.8378   -7.7030    0.0229 N   0  0  0  0  0  0
    3.5699   -6.5910    0.0221 C   0  0  0  0  0  0
    2.8265   -5.4834    0.0200 N   0  0  0  0  0  0
    0.6821   -7.9451    0.0215 H   0  0  0  0  0  0
    0.6738   -5.1705    0.0179 H   0  0  0  0  0  0
    4.6516   -6.5818    0.0229 H   0  0  0  0  0  0
    3.1860   -4.5346    0.0191 H   0  0  0  0  0  0
  1  2  2  0  0  0
  1  3  1  0  0  0
  1  6  1  0  0  0
  2  5  1  0  0  0
  2  7  1  0  0  0
  3  4  2  0  0  0
  4  5  1  0  0  0
  4  8  1  0  0  0
  5  9  1  0  0  0
M  END
> <s_m_entry_name>
Schrodinger_fragment_86

> <i_m_number_of_atoms>
9

> <r_m_molecular_weight>
68.07873

> <s_m_molecular_formula>
C3H4N2

> <r_epik_Ionization_Penalty>
  0.2269

> <r_epik_Ionization_Penalty_Charging>
  0.0000

> <r_epik_Ionization_Penalty_Neutral>
  0.2269

> <r_epik_State_Penalty>
  0.2269

> <i_epik_Tot_Q>
0

> <r_epik_Metal_State_Penalty>
  0.0003

> <b_epik_Metal_Only>
0

> <s_m_entry_id>
4469

> <s_canvas_Unique_SMILES_Stereo>
c1c[nH]cn1

$$$$
Schrodinger_fragment_76_a
                    3D
 Structure written by MMmdl.
 10 10  0  0  1  0            999 V2000
    1.4758   -7.2646    0.0213 C   0  0  0  0  0  0
    1.4994   -5.8925    0.0195 C   0  0  0  0  0  0
    2.7844   -7.6727    0.0229 N   0  3  0  0  0  0
    3.6022   -6.6134    0.0221 C   0  0  0  0  0  0
    2.8223   -5.5264    0.0201 N   0  0  0  0  0  0
    0.6478   -7.9616    0.0215 H   0  0  0  0  0  0
    0.6922   -5.1700    0.0179 H   0  0  0  0  0  0
    4.6797   -6.6307    0.0230 H   0  0  0  0  0  0
    3.1722   -4.5726    0.0191 H   0  0  0  0  0  0
    3.0948   -8.6387    0.0244 H   0  0  0  0  0  0
  1  2  2  0  0  0
  1  3  1  0  0  0
  1  6  1  0  0  0
  2  5  1  0  0  0
  2  7  1  0  0  0
  3  4  2  0  0  0
  3 10  1  0  0  0
  4  5  1  0  0  0
  4  8  1  0  0  0
  5  9  1  0  0  0
M  CHG  1   3   1
M  END
> <s_m_entry_name>
Schrodinger_fragment_86

> <i_m_number_of_atoms>
9

> <r_m_molecular_weight>
68.07873

> <s_m_molecular_formula>
C3H4N2

> <r_epik_Ionization_Penalty>
  1.3570

> <r_epik_Ionization_Penalty_Charging>
  0.6785

> <r_epik_Ionization_Penalty_Neutral>
  0.6785

> <r_epik_State_Penalty>
  0.6785

> <i_epik_Tot_Q>
1

> <r_epik_Metal_State_Penalty>
  4.5446

> <b_epik_Metal_Only>
0

> <s_m_entry_id>
4470

> <s_canvas_Unique_SMILES_Stereo>
c1c[nH+]c[nH]1

$$$$
Schrodinger_fragment_77
                    3D
 Structure written by MMmdl.
 13 13  0  0  1  0            999 V2000
    1.4682   -7.2932    0.0173 C   0  0  0  0  0  0
    1.4856   -5.9217    0.0185 C   0  0  0  0  0  0
    2.7775   -7.6957    0.0221 N   0  3  0  0  0  0
    3.5903   -6.6336    0.0262 C   0  0  0  0  0  0
    2.8056   -5.5469    0.0240 N   0  0  0  0  0  0
    3.3327   -4.1818    0.0273 C   0  0  0  0  0  0
    0.6432   -7.9927    0.0134 H   0  0  0  0  0  0
    0.6734   -5.2071    0.0160 H   0  0  0  0  0  0
    4.6668   -6.6544    0.0304 H   0  0  0  0  0  0
    4.4231   -4.1971    0.0316 H   0  0  0  0  0  0
    2.9750   -3.6633    0.9168 H   0  0  0  0  0  0
    2.9821   -3.6618   -0.8643 H   0  0  0  0  0  0
    3.0923   -8.6594    0.0224 H   0  0  0  0  0  0
  1  2  2  0  0  0
  1  3  1  0  0  0
  1  7  1  0  0  0
  2  5  1  0  0  0
  2  8  1  0  0  0
  3  4  2  0  0  0
  3 13  1  0  0  0
  4  5  1  0  0  0
  4  9  1  0  0  0
  5  6  1  0  0  0
  6 10  1  0  0  0
  6 11  1  0  0  0
  6 12  1  0  0  0
M  CHG  1   3   1
M  END
> <s_m_entry_name>
Schrodinger_fragment_88

> <i_m_number_of_atoms>
12

> <r_m_molecular_weight>
82.10582

> <s_m_molecular_formula>
C4H6N2

> <r_epik_Ionization_Penalty>
  0.2634

> <r_epik_Ionization_Penalty_Charging>
  0.2634

> <r_epik_Ionization_Penalty_Neutral>
  0.0000

> <r_epik_State_Penalty>
  0.2634

> <i_epik_Tot_Q>
1

> <r_epik_Metal_State_Penalty>
  3.7500

> <b_epik_Metal_Only>
0

> <s_m_entry_id>
4471

> <s_canvas_Unique_SMILES_Stereo>
Cn1cc[nH+]c1

$$$$
Schrodinger_fragment_77_a
                    3D
 Structure written by MMmdl.
 12 12  0  0  1  0            999 V2000
    1.5040   -7.2893    0.0174 C   0  0  0  0  0  0
    1.5031   -5.9135    0.0186 C   0  0  0  0  0  0
    2.8207   -7.7508    0.0222 N   0  0  0  0  0  0
    3.5534   -6.6401    0.0260 C   0  0  0  0  0  0
    2.8324   -5.5103    0.0242 N   0  0  0  0  0  0
    3.3281   -4.1495    0.0273 C   0  0  0  0  0  0
    0.6658   -7.9729    0.0136 H   0  0  0  0  0  0
    0.6810   -5.2092    0.0160 H   0  0  0  0  0  0
    4.6349   -6.6481    0.0302 H   0  0  0  0  0  0
    4.4187   -4.1428    0.0317 H   0  0  0  0  0  0
    2.9688   -3.6279    0.9146 H   0  0  0  0  0  0
    2.9760   -3.6264   -0.8620 H   0  0  0  0  0  0
  1  2  2  0  0  0
  1  3  1  0  0  0
  1  7  1  0  0  0
  2  5  1  0  0  0
  2  8  1  0  0  0
  3  4  2  0  0  0
  4  5  1  0  0  0
  4  9  1  0  0  0
  5  6  1  0  0  0
  6 10  1  0  0  0
  6 11  1  0  0  0
  6 12  1  0  0  0
M  END
> <s_m_entry_name>
Schrodinger_fragment_88

> <i_m_number_of_atoms>
12

> <r_m_molecular_weight>
82.10582

> <s_m_molecular_formula>
C4H6N2

> <r_epik_Ionization_Penalty>
  0.6072

> <r_epik_Ionization_Penalty_Charging>
  0.0000

> <r_epik_Ionization_Penalty_Neutral>
  0.6072

> <r_epik_State_Penalty>
  0.6072

> <i_epik_Tot_Q>
0

> <r_epik_Metal_State_Penalty>
  0.0011

> <b_epik_Metal_Only>
0

> <s_m_entry_id>
4472

> <s_canvas_Unique_SMILES_Stereo>
Cn1ccnc1

$$$$
Schrodinger_fragment_78
                    3D
 Structure written by MMmdl.
 15 16  0  0  1  0            999 V2000
    1.2458    4.3242    0.0298 C   0  0  0  0  0  0
    1.2669    2.9129    0.0288 C   0  0  0  0  0  0
    2.4953    2.2157    0.0254 C   0  0  0  0  0  0
    3.7182    2.9191    0.0229 C   0  0  0  0  0  0
    3.6719    4.3470    0.0240 C   0  0  0  0  0  0
    2.4542    5.0501    0.0274 C   0  0  0  0  0  0
    5.0271    2.4528    0.0195 N   0  0  0  0  0  0
    5.7249    3.5908    0.0186 C   0  0  0  0  0  0
    5.0034    4.7219    0.0211 N   0  0  0  0  0  0
    0.2977    4.8500    0.0324 H   0  0  0  0  0  0
    0.3345    2.3611    0.0306 H   0  0  0  0  0  0
    2.5067    1.1345    0.0246 H   0  0  0  0  0  0
    2.4446    6.1323    0.0282 H   0  0  0  0  0  0
    6.8080    3.6038    0.0160 H   0  0  0  0  0  0
    5.4039    5.6545    0.0208 H   0  0  0  0  0  0
  1  2  2  0  0  0
  1  6  1  0  0  0
  1 10  1  0  0  0
  2  3  1  0  0  0
  2 11  1  0  0  0
  3  4  2  0  0  0
  3 12  1  0  0  0
  4  5  1  0  0  0
  4  7  1  0  0  0
  5  6  2  0  0  0
  5  9  1  0  0  0
  6 13  1  0  0  0
  7  8  2  0  0  0
  8  9  1  0  0  0
  8 14  1  0  0  0
  9 15  1  0  0  0
M  END
> <s_m_entry_name>
Schrodinger_fragment_90

> <i_m_number_of_atoms>
15

> <r_m_molecular_weight>
118.13927

> <s_m_molecular_formula>
C7H6N2

> <r_epik_Ionization_Penalty>
  0.0267

> <r_epik_Ionization_Penalty_Charging>
  0.0000

> <r_epik_Ionization_Penalty_Neutral>
  0.0267

> <r_epik_State_Penalty>
  0.0267

> <i_epik_Tot_Q>
0

> <r_epik_Metal_State_Penalty>
  0.0000

> <b_epik_Metal_Only>
0

> <s_m_entry_id>
4473

> <s_canvas_Unique_SMILES_Stereo>
n1c[nH]c(c12)cccc2

$$$$
Schrodinger_fragment_78_a
                    3D
 Structure written by MMmdl.
 16 17  0  0  1  0            999 V2000
    1.2681    4.3222    0.0298 C   0  0  0  0  0  0
    1.2578    2.9111    0.0288 C   0  0  0  0  0  0
    2.4577    2.1668    0.0254 C   0  0  0  0  0  0
    3.6440    2.8939    0.0231 C   0  0  0  0  0  0
    3.6544    4.3045    0.0241 C   0  0  0  0  0  0
    2.4788    5.0488    0.0274 C   0  0  0  0  0  0
    4.9755    2.4878    0.0196 N   0  3  0  0  0  0
    5.7854    3.5837    0.0185 C   0  0  0  0  0  0
    4.9915    4.6907    0.0211 N   0  0  0  0  0  0
    0.3259    4.8572    0.0324 H   0  0  0  0  0  0
    0.3079    2.3900    0.0307 H   0  0  0  0  0  0
    2.4451    1.0850    0.0247 H   0  0  0  0  0  0
    2.4828    6.1306    0.0281 H   0  0  0  0  0  0
    6.8687    3.5768    0.0159 H   0  0  0  0  0  0
    5.3555    5.6376    0.0209 H   0  0  0  0  0  0
    5.3247    1.5357    0.0182 H   0  0  0  0  0  0
  1  2  2  0  0  0
  1  6  1  0  0  0
  1 10  1  0  0  0
  2  3  1  0  0  0
  2 11  1  0  0  0
  3  4  2  0  0  0
  3 12  1  0  0  0
  4  5  1  0  0  0
  4  7  1  0  0  0
  5  6  2  0  0  0
  5  9  1  0  0  0
  6 13  1  0  0  0
  7  8  2  0  0  0
  7 16  1  0  0  0
  8  9  1  0  0  0
  8 14  1  0  0  0
  9 15  1  0  0  0
M  CHG  1   7   1
M  END
> <s_m_entry_name>
Schrodinger_fragment_90

> <i_m_number_of_atoms>
15

> <r_m_molecular_weight>
118.13927

> <s_m_molecular_formula>
C7H6N2

> <r_epik_Ionization_Penalty>
  3.6988

> <r_epik_Ionization_Penalty_Charging>
  1.8494

> <r_epik_Ionization_Penalty_Neutral>
  1.8494

> <r_epik_State_Penalty>
  1.8494

> <i_epik_Tot_Q>
1

> <r_epik_Metal_State_Penalty>
  5.9155

> <b_epik_Metal_Only>
0

> <s_m_entry_id>
4474

> <s_canvas_Unique_SMILES_Stereo>
[nH]1c[nH+]c(c12)cccc2

$$$$
Schrodinger_fragment_79
                    3D
 Structure written by MMmdl.
 18 19  0  0  1  0            999 V2000
    1.2537   -0.9555    0.1433 C   0  0  0  0  0  0
    1.2675   -2.3653    0.0848 C   0  0  0  0  0  0
    2.4908   -3.0656   -0.0029 C   0  0  0  0  0  0
    3.7163   -2.3661   -0.0333 C   0  0  0  0  0  0
    3.6804   -0.9395    0.0270 C   0  0  0  0  0  0
    2.4653   -0.2353    0.1144 C   0  0  0  0  0  0
    5.0170   -2.8382   -0.1153 N   0  0  0  0  0  0
    5.7138   -1.6998   -0.1023 C   0  0  0  0  0  0
    5.0130   -0.5504   -0.0213 N   0  0  0  0  0  0
    5.5389    0.8007    0.0087 C   0  0  0  0  0  0
    0.3097   -0.4265    0.2105 H   0  0  0  0  0  0
    0.3333   -2.9137    0.1074 H   0  0  0  0  0  0
    2.4964   -4.1460   -0.0474 H   0  0  0  0  0  0
    2.4671    0.8454    0.1587 H   0  0  0  0  0  0
    6.7951   -1.7000   -0.1544 H   0  0  0  0  0  0
    6.6283    0.7883   -0.0443 H   0  0  0  0  0  0
    5.2362    1.2939    0.9331 H   0  0  0  0  0  0
    5.1508    1.3665   -0.8389 H   0  0  0  0  0  0
  1  2  2  0  0  0
  1  6  1  0  0  0
  1 11  1  0  0  0
  2  3  1  0  0  0
  2 12  1  0  0  0
  3  4  2  0  0  0
  3 13  1  0  0  0
  4  5  1  0  0  0
  4  7  1  0  0  0
  5  6  2  0  0  0
  5  9  1  0  0  0
  6 14  1  0  0  0
  7  8  2  0  0  0
  8  9  1  0  0  0
  8 15  1  0  0  0
  9 10  1  0  0  0
 10 16  1  0  0  0
 10 17  1  0  0  0
 10 18  1  0  0  0
M  END
> <s_m_entry_name>
Schrodinger_fragment_91

> <i_m_number_of_atoms>
18

> <r_m_molecular_weight>
132.16636

> <s_m_molecular_formula>
C8H8N2

> <r_epik_Ionization_Penalty>
  0.0703

> <r_epik_Ionization_Penalty_Charging>
  0.0000

> <r_epik_Ionization_Penalty_Neutral>
  0.0703

> <r_epik_State_Penalty>
  0.0703

> <i_epik_Tot_Q>
0

> <r_epik_Metal_State_Penalty>
  0.0001

> <b_epik_Metal_Only>
0

> <s_m_entry_id>
4475

> <s_canvas_Unique_SMILES_Stereo>
n1cn(C)c(c12)cccc2

$$$$
Schrodinger_fragment_79_a
                    3D
 Structure written by MMmdl.
 19 20  0  0  1  0            999 V2000
    1.3214   -0.9170    0.1416 C   0  0  0  0  0  0
    1.2810   -2.3266    0.0858 C   0  0  0  0  0  0
    2.4636   -3.0937   -0.0027 C   0  0  0  0  0  0
    3.6647   -2.3915   -0.0318 C   0  0  0  0  0  0
    3.7045   -0.9811    0.0241 C   0  0  0  0  0  0
    2.5465   -0.2147    0.1114 C   0  0  0  0  0  0
    4.9884   -2.8246   -0.1134 N   0  3  0  0  0  0
    5.8320   -1.7553   -0.1102 C   0  0  0  0  0  0
    5.0565   -0.6331   -0.0268 N   0  0  0  0  0  0
    5.4267    0.7857    0.0135 C   0  0  0  0  0  0
    0.3910   -0.3658    0.2091 H   0  0  0  0  0  0
    0.3212   -2.8281    0.1115 H   0  0  0  0  0  0
    2.4259   -4.1731   -0.0451 H   0  0  0  0  0  0
    2.5711    0.8648    0.1544 H   0  0  0  0  0  0
    6.9152   -1.8006   -0.1643 H   0  0  0  0  0  0
    6.5123    0.8830   -0.0348 H   0  0  0  0  0  0
    5.0688    1.2314    0.9431 H   0  0  0  0  0  0
    4.9829    1.3044   -0.8379 H   0  0  0  0  0  0
    5.3124   -3.7832   -0.1683 H   0  0  0  0  0  0
  1  2  2  0  0  0
  1  6  1  0  0  0
  1 11  1  0  0  0
  2  3  1  0  0  0
  2 12  1  0  0  0
  3  4  2  0  0  0
  3 13  1  0  0  0
  4  5  1  0  0  0
  4  7  1  0  0  0
  5  6  2  0  0  0
  5  9  1  0  0  0
  6 14  1  0  0  0
  7  8  2  0  0  0
  7 19  1  0  0  0
  8  9  1  0  0  0
  8 15  1  0  0  0
  9 10  1  0  0  0
 10 16  1  0  0  0
 10 17  1  0  0  0
 10 18  1  0  0  0
M  CHG  1   7   1
M  END
> <s_m_entry_name>
Schrodinger_fragment_91

> <i_m_number_of_atoms>
18

> <r_m_molecular_weight>
132.16636

> <s_m_molecular_formula>
C8H8N2

> <r_epik_Ionization_Penalty>
  1.2981

> <r_epik_Ionization_Penalty_Charging>
  1.2981

> <r_epik_Ionization_Penalty_Neutral>
  0.0000

> <r_epik_State_Penalty>
  1.2981

> <i_epik_Tot_Q>
1

> <r_epik_Metal_State_Penalty>
  5.3206

> <b_epik_Metal_Only>
0

> <s_m_entry_id>
4476

> <s_canvas_Unique_SMILES_Stereo>
Cn1c[nH+]c(c12)cccc2

$$$$
Schrodinger_fragment_80
                    3D
 Structure written by MMmdl.
 10 10  0  0  1  0            999 V2000
    1.8725    2.2164    0.0183 C   0  0  0  0  0  0
    0.4462    2.1720    0.0210 C   0  0  0  0  0  0
    2.3328    0.9282    0.0202 C   0  0  0  0  0  0
    1.2244    0.1069    0.0240 N   0  0  0  0  0  0
    0.0671    0.8576    0.0245 C   0  0  0  0  0  0
    2.4959    3.1014    0.0152 H   0  0  0  0  0  0
   -0.2310    3.0164    0.0204 H   0  0  0  0  0  0
    3.3369    0.5210    0.0192 H   0  0  0  0  0  0
    1.2561   -0.9099    0.0261 H   0  0  0  0  0  0
   -0.9097    0.3886    0.0273 H   0  0  0  0  0  0
  1  2  1  0  0  0
  1  3  2  0  0  0
  1  6  1  0  0  0
  2  5  2  0  0  0
  2  7  1  0  0  0
  3  4  1  0  0  0
  3  8  1  0  0  0
  4  5  1  0  0  0
  4  9  1  0  0  0
  5 10  1  0  0  0
M  END
> <s_m_entry_name>
Schrodinger_fragment_92

> <i_m_number_of_atoms>
10

> <r_m_molecular_weight>
67.09115

> <s_m_molecular_formula>
C4H5N1

> <r_epik_Ionization_Penalty>
  0.0000

> <r_epik_Ionization_Penalty_Charging>
  0.0000

> <r_epik_Ionization_Penalty_Neutral>
  0.0000

> <r_epik_State_Penalty>
  0.0000

> <i_epik_Tot_Q>
0

> <r_epik_Metal_State_Penalty>
  0.0000

> <b_epik_Metal_Only>
0

> <s_m_entry_id>
4477

> <s_canvas_Unique_SMILES_Stereo>
c1cc[nH]c1

$$$$
Schrodinger_fragment_81
                    3D
 Structure written by MMmdl.
 13 13  0  0  1  0            999 V2000
    3.8782   -1.9681    0.0158 C   0  0  0  0  0  0
    2.4555   -1.9834    0.0234 C   0  0  0  0  0  0
    4.3048   -3.2665    0.0174 C   0  0  0  0  0  0
    3.1897   -4.0852    0.0257 N   0  0  0  0  0  0
    2.0566   -3.2906    0.0293 C   0  0  0  0  0  0
    3.2120   -5.5353    0.0299 C   0  0  0  0  0  0
    4.5219   -1.0981    0.0098 H   0  0  0  0  0  0
    1.7933   -1.1274    0.0243 H   0  0  0  0  0  0
    5.3042   -3.6847    0.0133 H   0  0  0  0  0  0
    1.0655   -3.7281    0.0359 H   0  0  0  0  0  0
    2.1967   -5.9332    0.0363 H   0  0  0  0  0  0
    3.7359   -5.8949    0.9158 H   0  0  0  0  0  0
    3.7267   -5.9001   -0.8593 H   0  0  0  0  0  0
  1  2  1  0  0  0
  1  3  2  0  0  0
  1  7  1  0  0  0
  2  5  2  0  0  0
  2  8  1  0  0  0
  3  4  1  0  0  0
  3  9  1  0  0  0
  4  5  1  0  0  0
  4  6  1  0  0  0
  5 10  1  0  0  0
  6 11  1  0  0  0
  6 12  1  0  0  0
  6 13  1  0  0  0
M  END
> <s_m_entry_name>
Schrodinger_fragment_93

> <i_m_number_of_atoms>
13

> <r_m_molecular_weight>
81.11824

> <s_m_molecular_formula>
C5H7N1

> <r_epik_Ionization_Penalty>
  0.0000

> <r_epik_Ionization_Penalty_Charging>
  0.0000

> <r_epik_Ionization_Penalty_Neutral>
  0.0000

> <r_epik_State_Penalty>
  0.0000

> <i_epik_Tot_Q>
0

> <r_epik_Metal_State_Penalty>
  0.0000

> <b_epik_Metal_Only>
0

> <s_m_entry_id>
4478

> <s_canvas_Unique_SMILES_Stereo>
Cn1cccc1

$$$$
Schrodinger_fragment_82
                    3D
 Structure written by MMmdl.
  8  8  0  0  1  0            999 V2000
    2.1628    1.8797    0.0196 N   0  0  0  0  0  0
    2.1510    0.4796    0.0214 C   0  0  0  0  0  0
    0.9267    2.3909    0.0193 C   0  0  0  0  0  0
   -0.3475    1.1823    0.0212 S   0  0  0  0  0  0
    0.8855   -0.0522    0.0224 C   0  0  0  0  0  0
    3.0881   -0.0614    0.0219 H   0  0  0  0  0  0
    0.7594    3.4599    0.0179 H   0  0  0  0  0  0
    0.6079   -1.0989    0.0239 H   0  0  0  0  0  0
  1  2  1  0  0  0
  1  3  2  0  0  0
  2  5  2  0  0  0
  2  6  1  0  0  0
  3  4  1  0  0  0
  3  7  1  0  0  0
  4  5  1  0  0  0
  5  8  1  0  0  0
M  END
> <s_m_entry_name>
Schrodinger_fragment_94

> <i_m_number_of_atoms>
8

> <r_m_molecular_weight>
85.12806

> <s_m_molecular_formula>
C3H3N1S1

> <r_epik_Ionization_Penalty>
  0.0001

> <r_epik_Ionization_Penalty_Charging>
  0.0000

> <r_epik_Ionization_Penalty_Neutral>
  0.0001

> <r_epik_State_Penalty>
  0.0000

> <i_epik_Tot_Q>
0

> <r_epik_Metal_State_Penalty>
  0.0000

> <b_epik_Metal_Only>
0

> <s_m_entry_id>
4479

> <s_canvas_Unique_SMILES_Stereo>
c1cscn1

$$$$
Schrodinger_fragment_83
                    3D
 Structure written by MMmdl.
  8  8  0  0  1  0            999 V2000
    0.4526    2.1985    0.0226 C   0  0  0  0  0  0
    1.8433    2.2151    0.0265 N   0  0  0  0  0  0
    0.0447    0.8902    0.0169 C   0  0  0  0  0  0
    1.1448    0.0725    0.0171 O   0  0  0  0  0  0
    2.2021    0.9290    0.0230 C   0  0  0  0  0  0
   -0.1360    3.1061    0.0242 H   0  0  0  0  0  0
   -0.9275    0.4142    0.0126 H   0  0  0  0  0  0
    3.2220    0.5720    0.0246 H   0  0  0  0  0  0
  1  2  1  0  0  0
  1  3  2  0  0  0
  1  6  1  0  0  0
  2  5  2  0  0  0
  3  4  1  0  0  0
  3  7  1  0  0  0
  4  5  1  0  0  0
  5  8  1  0  0  0
M  END
> <s_m_entry_name>
Schrodinger_fragment_95

> <i_m_number_of_atoms>
8

> <r_m_molecular_weight>
69.06346

> <s_m_molecular_formula>
C3H3N1O1

> <r_epik_Ionization_Penalty>
  0.0000

> <r_epik_Ionization_Penalty_Charging>
  0.0000

> <r_epik_Ionization_Penalty_Neutral>
  0.0000

> <r_epik_State_Penalty>
  0.0000

> <i_epik_Tot_Q>
0

> <r_epik_Metal_State_Penalty>
  0.0000

> <b_epik_Metal_Only>
0

> <s_m_entry_id>
4480

> <s_canvas_Unique_SMILES_Stereo>
c1cocn1

$$$$
Schrodinger_fragment_84
                    3D
 Structure written by MMmdl.
  8  8  0  0  1  0            999 V2000
    3.2230   -2.6979    0.0180 C   0  0  0  0  0  0
    4.6414   -2.7752    0.0207 C   0  0  0  0  0  0
    2.8242   -4.0039    0.0218 C   0  0  0  0  0  0
    3.9087   -4.8241    0.0264 O   0  0  0  0  0  0
    5.0633   -4.0326    0.0257 N   0  0  0  0  0  0
    2.5958   -1.8183    0.0139 H   0  0  0  0  0  0
    5.3653   -1.9728    0.0192 H   0  0  0  0  0  0
    1.8578   -4.4886    0.0218 H   0  0  0  0  0  0
  1  2  1  0  0  0
  1  3  2  0  0  0
  1  6  1  0  0  0
  2  5  2  0  0  0
  2  7  1  0  0  0
  3  4  1  0  0  0
  3  8  1  0  0  0
  4  5  1  0  0  0
M  END
> <s_m_entry_name>
Schrodinger_fragment_96

> <i_m_number_of_atoms>
8

> <r_m_molecular_weight>
69.06346

> <s_m_molecular_formula>
C3H3N1O1

> <r_epik_Ionization_Penalty>
  0.0000

> <r_epik_Ionization_Penalty_Charging>
  0.0000

> <r_epik_Ionization_Penalty_Neutral>
  0.0000

> <r_epik_State_Penalty>
  0.0000

> <i_epik_Tot_Q>
0

> <r_epik_Metal_State_Penalty>
  0.0000

> <b_epik_Metal_Only>
0

> <s_m_entry_id>
4481

> <s_canvas_Unique_SMILES_Stereo>
c1cnoc1

$$$$
Schrodinger_fragment_85
                    3D
 Structure written by MMmdl.
  9  9  0  0  1  0            999 V2000
    0.4147    2.2265    0.0185 C   0  0  0  0  0  0
    1.8353    2.1266    0.0207 C   0  0  0  0  0  0
   -0.0177    0.9297    0.0203 C   0  0  0  0  0  0
    1.1098    0.1417    0.0234 N   0  0  0  0  0  0
    2.2521    0.8658    0.0236 N   0  0  0  0  0  0
   -0.1942    3.1204    0.0159 H   0  0  0  0  0  0
    2.5656    2.9244    0.0202 H   0  0  0  0  0  0
   -1.0143    0.5077    0.0197 H   0  0  0  0  0  0
    1.0972   -0.8771    0.0253 H   0  0  0  0  0  0
  1  2  1  0  0  0
  1  3  2  0  0  0
  1  6  1  0  0  0
  2  5  2  0  0  0
  2  7  1  0  0  0
  3  4  1  0  0  0
  3  8  1  0  0  0
  4  5  1  0  0  0
  4  9  1  0  0  0
M  END
> <s_m_entry_name>
Schrodinger_fragment_97

> <i_m_number_of_atoms>
9

> <r_m_molecular_weight>
68.07873

> <s_m_molecular_formula>
C3H4N2

> <r_epik_Ionization_Penalty>
  0.0000

> <r_epik_Ionization_Penalty_Charging>
  0.0000

> <r_epik_Ionization_Penalty_Neutral>
  0.0000

> <r_epik_State_Penalty>
  0.0000

> <i_epik_Tot_Q>
0

> <r_epik_Metal_State_Penalty>
  0.0000

> <b_epik_Metal_Only>
0

> <s_m_entry_id>
4482

> <s_canvas_Unique_SMILES_Stereo>
c1cn[nH]c1

$$$$
Schrodinger_fragment_86
                    3D
 Structure written by MMmdl.
 12 12  0  0  1  0            999 V2000
    2.4062   -1.9533    0.0146 C   0  0  0  0  0  0
    3.8236   -2.0687    0.0281 C   0  0  0  0  0  0
    1.9658   -3.2466    0.0132 C   0  0  0  0  0  0
    3.0819   -4.0553    0.0254 N   0  0  0  0  0  0
    4.2248   -3.3331    0.0345 N   0  0  0  0  0  0
    3.1396   -5.5027    0.0290 C   0  0  0  0  0  0
    1.8051   -1.0548    0.0070 H   0  0  0  0  0  0
    4.5634   -1.2800    0.0333 H   0  0  0  0  0  0
    0.9641   -3.6549    0.0047 H   0  0  0  0  0  0
    4.1731   -5.8512    0.0391 H   0  0  0  0  0  0
    2.6453   -5.8916   -0.8615 H   0  0  0  0  0  0
    2.6292   -5.8878    0.9121 H   0  0  0  0  0  0
  1  2  1  0  0  0
  1  3  2  0  0  0
  1  7  1  0  0  0
  2  5  2  0  0  0
  2  8  1  0  0  0
  3  4  1  0  0  0
  3  9  1  0  0  0
  4  5  1  0  0  0
  4  6  1  0  0  0
  6 10  1  0  0  0
  6 11  1  0  0  0
  6 12  1  0  0  0
M  END
> <s_m_entry_name>
Schrodinger_fragment_98

> <i_m_number_of_atoms>
12

> <r_m_molecular_weight>
82.10582

> <s_m_molecular_formula>
C4H6N2

> <r_epik_Ionization_Penalty>
  0.0002

> <r_epik_Ionization_Penalty_Charging>
  0.0000

> <r_epik_Ionization_Penalty_Neutral>
  0.0002

> <r_epik_State_Penalty>
  0.0000

> <i_epik_Tot_Q>
0

> <r_epik_Metal_State_Penalty>
  0.0000

> <b_epik_Metal_Only>
0

> <s_m_entry_id>
4483

> <s_canvas_Unique_SMILES_Stereo>
Cn1cccn1

$$$$
Schrodinger_fragment_87
                    3D
 Structure written by MMmdl.
 12 12  0  0  1  0            999 V2000
    4.2106   -3.8699    0.0231 C   0  0  0  0  0  0
    4.2340   -2.3340    0.0231 C   0  0  0  0  0  0
    2.0454   -3.0687    0.0237 C   0  0  0  0  0  0
    2.8130   -1.9744    0.0235 N   0  0  0  0  0  0
    4.6972   -4.2785   -0.8625 H   0  0  0  0  0  0
    4.6977   -4.2785    0.9084 H   0  0  0  0  0  0
    4.7330   -1.9402    0.9084 H   0  0  0  0  0  0
    4.7325   -1.9402   -0.8625 H   0  0  0  0  0  0
    0.9609   -3.0516    0.0240 H   0  0  0  0  0  0
    2.4743   -1.0215    0.0236 H   0  0  0  0  0  0
    2.7791   -4.1863    0.0235 N   0  3  0  0  0  0
    2.4115   -5.1283    0.0235 H   0  0  0  0  0  0
  1  2  1  0  0  0
  1  5  1  0  0  0
  1  6  1  0  0  0
  1 11  1  0  0  0
  2  4  1  0  0  0
  2  7  1  0  0  0
  2  8  1  0  0  0
  3  4  1  0  0  0
  3  9  1  0  0  0
  3 11  2  0  0  0
  4 10  1  0  0  0
 11 12  1  0  0  0
M  CHG  1  11   1
M  END
> <s_m_entry_name>
Schrodinger_fragment_99

> <i_m_number_of_atoms>
12

> <r_m_molecular_weight>
71.10264

> <s_m_molecular_formula>
C3H7N2

> <r_epik_Ionization_Penalty>
  0.0003

> <r_epik_Ionization_Penalty_Charging>
  0.0001

> <r_epik_Ionization_Penalty_Neutral>
  0.0001

> <r_epik_State_Penalty>
  0.0000

> <i_epik_Tot_Q>
1

> <r_epik_Metal_State_Penalty>
  0.0000

> <b_epik_Metal_Only>
0

> <s_m_entry_id>
4484

> <s_canvas_Unique_SMILES_Stereo>
C1=[NH+]CCN1

$$$$
Schrodinger_fragment_88
                    3D
 Structure written by MMmdl.
 17 17  0  0  1  0            999 V2000
    4.5058   -3.8406    0.0156 C   0  0  0  0  0  0
    4.4866   -2.3076    0.0237 C   0  0  0  0  0  0
    2.3120   -3.0999    0.0251 C   0  0  0  0  0  0
    3.0536   -1.9912    0.0290 N   0  0  0  0  0  0
    0.9725   -3.1029    0.0285 N   0  0  0  0  0  0
    0.1292   -4.3056    0.0244 C   0  0  0  0  0  0
    5.0018   -4.2306   -0.8734 H   0  0  0  0  0  0
    5.0063   -4.2399    0.8979 H   0  0  0  0  0  0
    4.9771   -1.9052    0.9102 H   0  0  0  0  0  0
    4.9725   -1.8960   -0.8611 H   0  0  0  0  0  0
    2.7048   -1.0413    0.0349 H   0  0  0  0  0  0
    0.4803   -2.2178    0.0344 H   0  0  0  0  0  0
   -0.9260   -4.0324    0.0286 H   0  0  0  0  0  0
    0.3269   -4.9163    0.9055 H   0  0  0  0  0  0
    0.3223   -4.9071   -0.8640 H   0  0  0  0  0  0
    3.0809   -4.1924    0.0174 N   0  3  0  0  0  0
    2.7551   -5.1491    0.0132 H   0  0  0  0  0  0
  1  2  1  0  0  0
  1  7  1  0  0  0
  1  8  1  0  0  0
  1 16  1  0  0  0
  2  4  1  0  0  0
  2  9  1  0  0  0
  2 10  1  0  0  0
  3  4  1  0  0  0
  3  5  1  0  0  0
  3 16  2  0  0  0
  4 11  1  0  0  0
  5  6  1  0  0  0
  5 12  1  0  0  0
  6 13  1  0  0  0
  6 14  1  0  0  0
  6 15  1  0  0  0
 16 17  1  0  0  0
M  CHG  1  16   1
M  END
> <s_m_entry_name>
Schrodinger_fragment_100

> <i_m_number_of_atoms>
17

> <r_m_molecular_weight>
100.1444

> <s_m_molecular_formula>
C4H10N3

> <r_epik_Ionization_Penalty>
  0.0000

> <r_epik_Ionization_Penalty_Charging>
  0.0000

> <r_epik_Ionization_Penalty_Neutral>
  0.0000

> <r_epik_State_Penalty>
  0.0000

> <i_epik_Tot_Q>
1

> <r_epik_Metal_State_Penalty>
  0.0000

> <b_epik_Metal_Only>
0

> <s_m_entry_id>
4485

> <s_canvas_Unique_SMILES_Stereo>
CNC1=[NH+]CCN1

$$$$
Schrodinger_fragment_89
                    3D
 Structure written by MMmdl.
  7  7  0  0  1  0            999 V2000
    1.8698    2.1845    0.0210 C   0  0  0  0  0  0
    0.4404    2.1842    0.0191 C   0  0  0  0  0  0
    2.4272    0.9937    0.0292 N   0  0  0  0  0  0
    1.1555   -0.0971    0.0344 S   0  0  0  0  0  0
   -0.1165    0.9932    0.0258 N   0  0  0  0  0  0
    2.5007    3.0621    0.0163 H   0  0  0  0  0  0
   -0.1908    3.0616    0.0127 H   0  0  0  0  0  0
  1  2  1  0  0  0
  1  3  2  0  0  0
  1  6  1  0  0  0
  2  5  2  0  0  0
  2  7  1  0  0  0
  3  4  1  0  0  0
  4  5  1  0  0  0
M  END
> <s_m_entry_name>
Schrodinger_fragment_101

> <i_m_number_of_atoms>
7

> <r_m_molecular_weight>
86.11564

> <s_m_molecular_formula>
C2H2N2S1

> <r_epik_Ionization_Penalty>
  0.0000

> <r_epik_Ionization_Penalty_Charging>
  0.0000

> <r_epik_Ionization_Penalty_Neutral>
  0.0000

> <r_epik_State_Penalty>
  0.0000

> <i_epik_Tot_Q>
0

> <r_epik_Metal_State_Penalty>
  0.0000

> <b_epik_Metal_Only>
0

> <s_m_entry_id>
4486

> <s_canvas_Unique_SMILES_Stereo>
c1cnsn1

$$$$
Schrodinger_fragment_90
                    3D
 Structure written by MMmdl.
  7  7  0  0  1  0            999 V2000
    1.8508    2.1784    0.0250 N   0  0  0  0  0  0
    0.4622    2.1801    0.0227 N   0  0  0  0  0  0
    2.3432    0.9305    0.0245 C   0  0  0  0  0  0
    1.1535   -0.3621    0.0211 S   0  0  0  0  0  0
   -0.0331    0.9333    0.0205 C   0  0  0  0  0  0
    3.4115    0.7669    0.0261 H   0  0  0  0  0  0
   -1.1018    0.7723    0.0185 H   0  0  0  0  0  0
  1  2  1  0  0  0
  1  3  2  0  0  0
  2  5  2  0  0  0
  3  4  1  0  0  0
  3  6  1  0  0  0
  4  5  1  0  0  0
  5  7  1  0  0  0
M  END
> <s_m_entry_name>
Schrodinger_fragment_102

> <i_m_number_of_atoms>
7

> <r_m_molecular_weight>
86.11564

> <s_m_molecular_formula>
C2H2N2S1

> <r_epik_Ionization_Penalty>
  0.0000

> <r_epik_Ionization_Penalty_Charging>
  0.0000

> <r_epik_Ionization_Penalty_Neutral>
  0.0000

> <r_epik_State_Penalty>
  0.0000

> <i_epik_Tot_Q>
0

> <r_epik_Metal_State_Penalty>
  0.0000

> <b_epik_Metal_Only>
0

> <s_m_entry_id>
4487

> <s_canvas_Unique_SMILES_Stereo>
c1nncs1

$$$$
Schrodinger_fragment_91
                    3D
 Structure written by MMmdl.
  7  7  0  0  1  0            999 V2000
    2.7919   -4.1035    0.0289 N   0  0  0  0  0  0
    3.2978   -2.8724    0.0253 C   0  0  0  0  0  0
    3.9268   -4.9277    0.0245 O   0  0  0  0  0  0
    4.9933   -4.0901    0.0188 C   0  0  0  0  0  0
    4.6611   -2.7970    0.0190 N   0  0  0  0  0  0
    2.6613   -1.9987    0.0274 H   0  0  0  0  0  0
    6.0061   -4.4678    0.0145 H   0  0  0  0  0  0
  1  2  2  0  0  0
  1  3  1  0  0  0
  2  5  1  0  0  0
  2  6  1  0  0  0
  3  4  1  0  0  0
  4  5  2  0  0  0
  4  7  1  0  0  0
M  END
> <s_m_entry_name>
Schrodinger_fragment_103

> <i_m_number_of_atoms>
7

> <r_m_molecular_weight>
70.05104

> <s_m_molecular_formula>
C2H2N2O1

> <r_epik_Ionization_Penalty>
  0.0000

> <r_epik_Ionization_Penalty_Charging>
  0.0000

> <r_epik_Ionization_Penalty_Neutral>
  0.0000

> <r_epik_State_Penalty>
  0.0000

> <i_epik_Tot_Q>
0

> <r_epik_Metal_State_Penalty>
  0.0000

> <b_epik_Metal_Only>
0

> <s_m_entry_id>
4488

> <s_canvas_Unique_SMILES_Stereo>
c1ncon1

$$$$
Schrodinger_fragment_92
                    3D
 Structure written by MMmdl.
  7  7  0  0  1  0            999 V2000
    1.8766    2.1629    0.0231 C   0  0  0  0  0  0
    0.4600    2.1797    0.0176 C   0  0  0  0  0  0
   -0.0000    0.9512    0.0228 N   0  0  0  0  0  0
    1.1441    0.1380    0.0318 O   0  0  0  0  0  0
    2.3072    0.9238    0.0319 N   0  0  0  0  0  0
    2.5631    2.9966    0.0211 H   0  0  0  0  0  0
   -0.2064    3.0295    0.0101 H   0  0  0  0  0  0
  1  2  1  0  0  0
  1  5  2  0  0  0
  1  6  1  0  0  0
  2  3  2  0  0  0
  2  7  1  0  0  0
  3  4  1  0  0  0
  4  5  1  0  0  0
M  END
> <s_m_entry_name>
Schrodinger_fragment_104

> <i_m_number_of_atoms>
7

> <r_m_molecular_weight>
70.05104

> <s_m_molecular_formula>
C2H2N2O1

> <r_epik_Ionization_Penalty>
  0.0000

> <r_epik_Ionization_Penalty_Charging>
  0.0000

> <r_epik_Ionization_Penalty_Neutral>
  0.0000

> <r_epik_State_Penalty>
  0.0000

> <i_epik_Tot_Q>
0

> <r_epik_Metal_State_Penalty>
  0.0000

> <b_epik_Metal_Only>
0

> <s_m_entry_id>
4489

> <s_canvas_Unique_SMILES_Stereo>
c1cnon1

$$$$
Schrodinger_fragment_93
                    3D
 Structure written by MMmdl.
 15 16  0  0  1  0            999 V2000
   -4.7204   -1.8228    0.0294 C   0  0  0  0  0  0
   -4.7024   -3.2342    0.0286 C   0  0  0  0  0  0
   -3.4704   -3.9177    0.0255 C   0  0  0  0  0  0
   -2.2836   -3.1675    0.0233 C   0  0  0  0  0  0
   -2.2624   -1.7486    0.0240 C   0  0  0  0  0  0
   -3.5128   -1.0884    0.0271 C   0  0  0  0  0  0
   -0.9888   -3.6456    0.0202 O   0  0  0  0  0  0
   -0.1646   -2.5497    0.0189 C   0  0  0  0  0  0
   -0.8779   -1.3738    0.0211 C   0  0  0  0  0  0
   -5.6690   -1.2989    0.0317 H   0  0  0  0  0  0
   -5.6325   -3.7897    0.0303 H   0  0  0  0  0  0
   -3.4315   -4.9982    0.0249 H   0  0  0  0  0  0
   -3.5408   -0.0068    0.0277 H   0  0  0  0  0  0
    0.8977   -2.7639    0.0165 H   0  0  0  0  0  0
   -0.4835   -0.3654    0.0208 H   0  0  0  0  0  0
  1  2  2  0  0  0
  1  6  1  0  0  0
  1 10  1  0  0  0
  2  3  1  0  0  0
  2 11  1  0  0  0
  3  4  2  0  0  0
  3 12  1  0  0  0
  4  5  1  0  0  0
  4  7  1  0  0  0
  5  6  2  0  0  0
  5  9  1  0  0  0
  6 13  1  0  0  0
  7  8  1  0  0  0
  8  9  2  0  0  0
  8 14  1  0  0  0
  9 15  1  0  0  0
M  END
> <s_m_entry_name>
Schrodinger_fragment_105

> <i_m_number_of_atoms>
15

> <r_m_molecular_weight>
118.13642

> <s_m_molecular_formula>
C8H6O1

> <r_epik_Ionization_Penalty>
  0.0000

> <r_epik_Ionization_Penalty_Charging>
  0.0000

> <r_epik_Ionization_Penalty_Neutral>
  0.0000

> <r_epik_State_Penalty>
  0.0000

> <i_epik_Tot_Q>
0

> <r_epik_Metal_State_Penalty>
  0.0000

> <b_epik_Metal_Only>
0

> <s_m_entry_id>
4490

> <s_canvas_Unique_SMILES_Stereo>
c1coc(c12)cccc2

$$$$
Schrodinger_fragment_94
                    3D
 Structure written by MMmdl.
 15 16  0  0  1  0            999 V2000
    0.2076   -1.7955    0.0298 C   0  0  0  0  0  0
    0.1550   -3.2005    0.0286 C   0  0  0  0  0  0
    1.3482   -3.9454    0.0252 C   0  0  0  0  0  0
    2.5890   -3.2801    0.0230 C   0  0  0  0  0  0
    2.6763   -1.8503    0.0241 C   0  0  0  0  0  0
    1.4544   -1.1393    0.0275 C   0  0  0  0  0  0
    4.1913   -4.0053    0.0187 S   0  0  0  0  0  0
    4.9380   -2.4361    0.0184 C   0  0  0  0  0  0
    4.0471   -1.3897    0.0214 C   0  0  0  0  0  0
   -0.7088   -1.2195    0.0324 H   0  0  0  0  0  0
   -0.8026   -3.7075    0.0304 H   0  0  0  0  0  0
    1.3171   -5.0269    0.0243 H   0  0  0  0  0  0
    1.4820   -0.0583    0.0285 H   0  0  0  0  0  0
    6.0210   -2.3747    0.0160 H   0  0  0  0  0  0
    4.3211   -0.3423    0.0217 H   0  0  0  0  0  0
  1  2  2  0  0  0
  1  6  1  0  0  0
  1 10  1  0  0  0
  2  3  1  0  0  0
  2 11  1  0  0  0
  3  4  2  0  0  0
  3 12  1  0  0  0
  4  5  1  0  0  0
  4  7  1  0  0  0
  5  6  2  0  0  0
  5  9  1  0  0  0
  6 13  1  0  0  0
  7  8  1  0  0  0
  8  9  2  0  0  0
  8 14  1  0  0  0
  9 15  1  0  0  0
M  END
> <s_m_entry_name>
Schrodinger_fragment_106

> <i_m_number_of_atoms>
15

> <r_m_molecular_weight>
134.20102

> <s_m_molecular_formula>
C8H6S1

> <r_epik_Ionization_Penalty>
  0.0000

> <r_epik_Ionization_Penalty_Charging>
  0.0000

> <r_epik_Ionization_Penalty_Neutral>
  0.0000

> <r_epik_State_Penalty>
  0.0000

> <i_epik_Tot_Q>
0

> <r_epik_Metal_State_Penalty>
  0.0000

> <b_epik_Metal_Only>
0

> <s_m_entry_id>
4491

> <s_canvas_Unique_SMILES_Stereo>
c1csc(c12)cccc2

$$$$
Schrodinger_fragment_95
                    3D
 Structure written by MMmdl.
 16 17  0  0  1  0            999 V2000
    0.2242   -1.8269    0.0289 C   0  0  0  0  0  0
    0.2088   -3.2353    0.0306 C   0  0  0  0  0  0
    1.4237   -3.9461    0.0278 C   0  0  0  0  0  0
    2.6399   -3.2406    0.0234 C   0  0  0  0  0  0
    2.6859   -1.8148    0.0216 C   0  0  0  0  0  0
    1.4495   -1.1272    0.0245 C   0  0  0  0  0  0
    3.9569   -3.6527    0.0199 N   0  0  0  0  0  0
    4.8153   -2.5644    0.0161 C   0  0  0  0  0  0
    4.0666   -1.4154    0.0170 C   0  0  0  0  0  0
   -0.7100   -1.2785    0.0311 H   0  0  0  0  0  0
   -0.7338   -3.7685    0.0340 H   0  0  0  0  0  0
    1.4215   -5.0281    0.0291 H   0  0  0  0  0  0
    1.4487   -0.0455    0.0232 H   0  0  0  0  0  0
    4.2783   -4.6166    0.0201 H   0  0  0  0  0  0
    5.8922   -2.6947    0.0131 H   0  0  0  0  0  0
    4.4335   -0.3977    0.0147 H   0  0  0  0  0  0
  1  2  2  0  0  0
  1  6  1  0  0  0
  1 10  1  0  0  0
  2  3  1  0  0  0
  2 11  1  0  0  0
  3  4  2  0  0  0
  3 12  1  0  0  0
  4  5  1  0  0  0
  4  7  1  0  0  0
  5  6  2  0  0  0
  5  9  1  0  0  0
  6 13  1  0  0  0
  7  8  1  0  0  0
  7 14  1  0  0  0
  8  9  2  0  0  0
  8 15  1  0  0  0
  9 16  1  0  0  0
M  END
> <s_m_entry_name>
Schrodinger_fragment_107

> <i_m_number_of_atoms>
16

> <r_m_molecular_weight>
117.15169

> <s_m_molecular_formula>
C8H7N1

> <r_epik_Ionization_Penalty>
  0.0000

> <r_epik_Ionization_Penalty_Charging>
  0.0000

> <r_epik_Ionization_Penalty_Neutral>
  0.0000

> <r_epik_State_Penalty>
  0.0000

> <i_epik_Tot_Q>
0

> <r_epik_Metal_State_Penalty>
  0.0000

> <b_epik_Metal_Only>
0

> <s_m_entry_id>
4492

> <s_canvas_Unique_SMILES_Stereo>
c1c[nH]c(c12)cccc2

$$$$
Schrodinger_fragment_96
                    3D
 Structure written by MMmdl.
 19 20  0  0  1  0            999 V2000
    0.2432   -1.8529    0.0294 C   0  0  0  0  0  0
    0.2354   -3.2609    0.0327 C   0  0  0  0  0  0
    1.4545   -3.9643    0.0303 C   0  0  0  0  0  0
    2.6703   -3.2550    0.0245 C   0  0  0  0  0  0
    2.7044   -1.8292    0.0209 C   0  0  0  0  0  0
    1.4646   -1.1474    0.0235 C   0  0  0  0  0  0
    3.9912   -3.6793    0.0210 N   0  0  0  0  0  0
    4.8285   -2.5697    0.0155 C   0  0  0  0  0  0
    4.0784   -1.4229    0.0153 C   0  0  0  0  0  0
    4.4341   -5.0602    0.0228 C   0  0  0  0  0  0
   -0.6939   -1.3094    0.0312 H   0  0  0  0  0  0
   -0.7041   -3.7996    0.0372 H   0  0  0  0  0  0
    1.4611   -5.0456    0.0329 H   0  0  0  0  0  0
    1.4583   -0.0657    0.0210 H   0  0  0  0  0  0
    5.9063   -2.6816    0.0121 H   0  0  0  0  0  0
    4.4419   -0.4045    0.0116 H   0  0  0  0  0  0
    5.5233   -5.1145    0.0192 H   0  0  0  0  0  0
    4.0527   -5.5706   -0.8622 H   0  0  0  0  0  0
    4.0588   -5.5663    0.9128 H   0  0  0  0  0  0
  1  2  2  0  0  0
  1  6  1  0  0  0
  1 11  1  0  0  0
  2  3  1  0  0  0
  2 12  1  0  0  0
  3  4  2  0  0  0
  3 13  1  0  0  0
  4  5  1  0  0  0
  4  7  1  0  0  0
  5  6  2  0  0  0
  5  9  1  0  0  0
  6 14  1  0  0  0
  7  8  1  0  0  0
  7 10  1  0  0  0
  8  9  2  0  0  0
  8 15  1  0  0  0
  9 16  1  0  0  0
 10 17  1  0  0  0
 10 18  1  0  0  0
 10 19  1  0  0  0
M  END
> <s_m_entry_name>
Schrodinger_fragment_108

> <i_m_number_of_atoms>
19

> <r_m_molecular_weight>
131.17878

> <s_m_molecular_formula>
C9H9N1

> <r_epik_Ionization_Penalty>
  0.0000

> <r_epik_Ionization_Penalty_Charging>
  0.0000

> <r_epik_Ionization_Penalty_Neutral>
  0.0000

> <r_epik_State_Penalty>
  0.0000

> <i_epik_Tot_Q>
0

> <r_epik_Metal_State_Penalty>
  0.0000

> <b_epik_Metal_Only>
0

> <s_m_entry_id>
4493

> <s_canvas_Unique_SMILES_Stereo>
c1cn(C)c(c12)cccc2

$$$$
Schrodinger_fragment_97
                    3D
 Structure written by MMmdl.
 10 10  0  0  1  0            999 V2000
    0.0915    0.7297    0.0178 C   0  0  0  0  0  0
    0.0911    2.1438    0.0190 C   0  0  0  0  0  0
    1.2417    2.8611    0.0228 N   0  0  0  0  0  0
    2.3928    2.1445    0.0255 C   0  0  0  0  0  0
    2.3933    0.7304    0.0243 C   0  0  0  0  0  0
    1.2426    0.0131    0.0204 N   0  0  0  0  0  0
   -0.8358    0.1753    0.0147 H   0  0  0  0  0  0
   -0.8366    2.6975    0.0168 H   0  0  0  0  0  0
    3.3201    2.6988    0.0285 H   0  0  0  0  0  0
    3.3209    0.1766    0.0264 H   0  0  0  0  0  0
  1  2  2  0  0  0
  1  6  1  0  0  0
  1  7  1  0  0  0
  2  3  1  0  0  0
  2  8  1  0  0  0
  3  4  2  0  0  0
  4  5  1  0  0  0
  4  9  1  0  0  0
  5  6  2  0  0  0
  5 10  1  0  0  0
M  END
> <s_m_entry_name>
Schrodinger_fragment_109

> <i_m_number_of_atoms>
10

> <r_m_molecular_weight>
80.08988

> <s_m_molecular_formula>
C4H4N2

> <r_epik_Ionization_Penalty>
  0.0000

> <r_epik_Ionization_Penalty_Charging>
  0.0000

> <r_epik_Ionization_Penalty_Neutral>
  0.0000

> <r_epik_State_Penalty>
  0.0000

> <i_epik_Tot_Q>
0

> <r_epik_Metal_State_Penalty>
  0.0000

> <b_epik_Metal_Only>
0

> <s_m_entry_id>
4494

> <s_canvas_Unique_SMILES_Stereo>
c1cnccn1

$$$$
Schrodinger_fragment_98
                    3D
 Structure written by MMmdl.
 10 10  0  0  1  0            999 V2000
    0.0519    2.0993    0.0197 C   0  0  0  0  0  0
    0.0545    0.7541    0.0191 N   0  0  0  0  0  0
    1.2403    0.1543    0.0209 C   0  0  0  0  0  0
    2.4275    0.7512    0.0233 N   0  0  0  0  0  0
    2.4334    2.0964    0.0239 C   0  0  0  0  0  0
    1.2435    2.8293    0.0222 C   0  0  0  0  0  0
   -0.9089    2.5930    0.0183 H   0  0  0  0  0  0
    1.2390   -0.9252    0.0204 H   0  0  0  0  0  0
    3.3953    2.5878    0.0258 H   0  0  0  0  0  0
    1.2448    3.9107    0.0227 H   0  0  0  0  0  0
  1  2  2  0  0  0
  1  6  1  0  0  0
  1  7  1  0  0  0
  2  3  1  0  0  0
  3  4  2  0  0  0
  3  8  1  0  0  0
  4  5  1  0  0  0
  5  6  2  0  0  0
  5  9  1  0  0  0
  6 10  1  0  0  0
M  END
> <s_m_entry_name>
Schrodinger_fragment_110

> <i_m_number_of_atoms>
10

> <r_m_molecular_weight>
80.08988

> <s_m_molecular_formula>
C4H4N2

> <r_epik_Ionization_Penalty>
  0.0000

> <r_epik_Ionization_Penalty_Charging>
  0.0000

> <r_epik_Ionization_Penalty_Neutral>
  0.0000

> <r_epik_State_Penalty>
  0.0000

> <i_epik_Tot_Q>
0

> <r_epik_Metal_State_Penalty>
  0.0000

> <b_epik_Metal_Only>
0

> <s_m_entry_id>
4495

> <s_canvas_Unique_SMILES_Stereo>
c1cncnc1

$$$$
Schrodinger_fragment_99
                    3D
 Structure written by MMmdl.
 10 10  0  0  1  0            999 V2000
    0.0120    2.1630    0.0184 C   0  0  0  0  0  0
    0.0704    0.7566    0.0198 C   0  0  0  0  0  0
    1.2479    0.0805    0.0238 N   0  0  0  0  0  0
    2.4096    0.7480    0.0266 N   0  0  0  0  0  0
    2.4186    2.1057    0.0254 C   0  0  0  0  0  0
    1.2330    2.8645    0.0213 C   0  0  0  0  0  0
   -0.9367    2.6785    0.0152 H   0  0  0  0  0  0
   -0.8322    0.1635    0.0177 H   0  0  0  0  0  0
    3.3855    2.5868    0.0277 H   0  0  0  0  0  0
    1.2655    3.9437    0.0204 H   0  0  0  0  0  0
  1  2  2  0  0  0
  1  6  1  0  0  0
  1  7  1  0  0  0
  2  3  1  0  0  0
  2  8  1  0  0  0
  3  4  2  0  0  0
  4  5  1  0  0  0
  5  6  2  0  0  0
  5  9  1  0  0  0
  6 10  1  0  0  0
M  END
> <s_m_entry_name>
Schrodinger_fragment_111

> <i_m_number_of_atoms>
10

> <r_m_molecular_weight>
80.08988

> <s_m_molecular_formula>
C4H4N2

> <r_epik_Ionization_Penalty>
  0.0000

> <r_epik_Ionization_Penalty_Charging>
  0.0000

> <r_epik_Ionization_Penalty_Neutral>
  0.0000

> <r_epik_State_Penalty>
  0.0000

> <i_epik_Tot_Q>
0

> <r_epik_Metal_State_Penalty>
  0.0000

> <b_epik_Metal_Only>
0

> <s_m_entry_id>
4496

> <s_canvas_Unique_SMILES_Stereo>
c1ccnnc1

$$$$
Schrodinger_fragment_100
                    3D
 Structure written by MMmdl.
  9  9  0  0  1  0            999 V2000
    0.1370    2.0730    0.0184 C   0  0  0  0  0  0
    0.0508    0.7493    0.0191 N   0  0  0  0  0  0
    1.2403    0.1621    0.0216 C   0  0  0  0  0  0
    2.4298    0.7493    0.0235 N   0  0  0  0  0  0
    2.3435    2.0730    0.0225 C   0  0  0  0  0  0
    1.2403    2.8095    0.0200 N   0  0  0  0  0  0
   -0.7985    2.6131    0.0163 H   0  0  0  0  0  0
    1.2403   -0.9181    0.0223 H   0  0  0  0  0  0
    3.2791    2.6132    0.0239 H   0  0  0  0  0  0
  1  2  2  0  0  0
  1  6  1  0  0  0
  1  7  1  0  0  0
  2  3  1  0  0  0
  3  4  2  0  0  0
  3  8  1  0  0  0
  4  5  1  0  0  0
  5  6  2  0  0  0
  5  9  1  0  0  0
M  END
> <s_m_entry_name>
Schrodinger_fragment_112

> <i_m_number_of_atoms>
9

> <r_m_molecular_weight>
81.07746

> <s_m_molecular_formula>
C3H3N3

> <r_epik_Ionization_Penalty>
  0.0000

> <r_epik_Ionization_Penalty_Charging>
  0.0000

> <r_epik_Ionization_Penalty_Neutral>
  0.0000

> <r_epik_State_Penalty>
  0.0000

> <i_epik_Tot_Q>
0

> <r_epik_Metal_State_Penalty>
  0.0000

> <b_epik_Metal_Only>
0

> <s_m_entry_id>
4497

> <s_canvas_Unique_SMILES_Stereo>
c1ncncn1

$$$$
Schrodinger_fragment_101
                    3D
 Structure written by MMmdl.
  9  9  0  0  1  0            999 V2000
    0.0683    2.1083    0.0273 N   0  0  0  0  0  0
    0.0417    0.7659    0.0243 N   0  0  0  0  0  0
    1.2155    0.0873    0.0189 C   0  0  0  0  0  0
    2.4405    0.7842    0.0165 C   0  0  0  0  0  0
    2.4644    2.1371    0.0196 N   0  0  0  0  0  0
    1.2642    2.7277    0.0248 C   0  0  0  0  0  0
    1.1770   -0.9923    0.0165 H   0  0  0  0  0  0
    3.3844    0.2593    0.0122 H   0  0  0  0  0  0
    1.2543    3.8070    0.0274 H   0  0  0  0  0  0
  1  2  2  0  0  0
  1  6  1  0  0  0
  2  3  1  0  0  0
  3  4  2  0  0  0
  3  7  1  0  0  0
  4  5  1  0  0  0
  4  8  1  0  0  0
  5  6  2  0  0  0
  6  9  1  0  0  0
M  END
> <s_m_entry_name>
Schrodinger_fragment_113

> <i_m_number_of_atoms>
9

> <r_m_molecular_weight>
81.07746

> <s_m_molecular_formula>
C3H3N3

> <r_epik_Ionization_Penalty>
  0.0000

> <r_epik_Ionization_Penalty_Charging>
  0.0000

> <r_epik_Ionization_Penalty_Neutral>
  0.0000

> <r_epik_State_Penalty>
  0.0000

> <i_epik_Tot_Q>
0

> <r_epik_Metal_State_Penalty>
  0.0000

> <b_epik_Metal_Only>
0

> <s_m_entry_id>
4498

> <s_canvas_Unique_SMILES_Stereo>
c1cnncn1

$$$$
Schrodinger_fragment_102
                    3D
 Structure written by MMmdl.
 19 20  0  0  1  0            999 V2000
    2.1751    2.1060   -0.0056 C   0  0  0  0  0  0
    2.2300    0.7372    0.0681 C   0  0  0  0  0  0
    3.4830   -0.0749    0.1245 C   0  0  0  0  0  0
    4.7159    0.7527   -0.2849 C   0  0  0  0  0  0
    4.6848    2.1681    0.3284 C   0  0  0  0  0  0
    3.4154    2.9545   -0.0652 C   0  0  0  0  0  0
    0.8352    2.5954   -0.0374 C   0  0  0  0  0  0
   -0.0997    1.5936    0.0081 C   0  0  0  0  0  0
    0.6423    0.0195    0.0868 S   0  0  0  0  0  0
    3.6171   -0.4446    1.1419 H   0  0  0  0  0  0
    3.3950   -0.9560   -0.5124 H   0  0  0  0  0  0
    5.6308    0.2277   -0.0075 H   0  0  0  0  0  0
    4.7359    0.8481   -1.3715 H   0  0  0  0  0  0
    4.7167    2.0712    1.4147 H   0  0  0  0  0  0
    5.5757    2.7311    0.0479 H   0  0  0  0  0  0
    3.5369    3.3375   -1.0791 H   0  0  0  0  0  0
    3.3135    3.8317    0.5751 H   0  0  0  0  0  0
    0.6065    3.6514   -0.0961 H   0  0  0  0  0  0
   -1.1807    1.6843   -0.0039 H   0  0  0  0  0  0
  1  2  2  0  0  0
  1  6  1  0  0  0
  1  7  1  0  0  0
  2  3  1  0  0  0
  2  9  1  0  0  0
  3  4  1  0  0  0
  3 10  1  0  0  0
  3 11  1  0  0  0
  4  5  1  0  0  0
  4 12  1  0  0  0
  4 13  1  0  0  0
  5  6  1  0  0  0
  5 14  1  0  0  0
  5 15  1  0  0  0
  6 16  1  0  0  0
  6 17  1  0  0  0
  7  8  2  0  0  0
  7 18  1  0  0  0
  8  9  1  0  0  0
  8 19  1  0  0  0
M  END
> <s_m_entry_name>
Schrodinger_fragment_114

> <i_m_number_of_atoms>
19

> <r_m_molecular_weight>
138.2329

> <s_m_molecular_formula>
C8H10S1

> <r_epik_Ionization_Penalty>
  0.0000

> <r_epik_Ionization_Penalty_Charging>
  0.0000

> <r_epik_Ionization_Penalty_Neutral>
  0.0000

> <r_epik_State_Penalty>
  0.0000

> <i_epik_Tot_Q>
0

> <r_epik_Metal_State_Penalty>
  0.0000

> <b_epik_Metal_Only>
0

> <s_m_entry_id>
4499

> <s_canvas_Unique_SMILES_Stereo>
c1csc(c12)CCCC2

$$$$
Schrodinger_fragment_103
                    3D
 Structure written by MMmdl.
 19 20  0  0  1  0            999 V2000
    2.1607    2.1702    0.0746 C   0  0  0  0  0  0
    2.1630    0.8121    0.0129 C   0  0  0  0  0  0
    3.3402   -0.0972   -0.0281 C   0  0  0  0  0  0
    4.6311    0.6916    0.2990 C   0  0  0  0  0  0
    4.6442    2.1274   -0.2937 C   0  0  0  0  0  0
    3.4257    2.9854    0.1337 C   0  0  0  0  0  0
    0.7893    2.5497    0.0667 C   0  0  0  0  0  0
    0.0735    1.3849   -0.0096 C   0  0  0  0  0  0
    0.9050    0.3035   -0.0501 O   0  0  0  0  0  0
    3.2118   -0.9290    0.6654 H   0  0  0  0  0  0
    3.4188   -0.5299   -1.0260 H   0  0  0  0  0  0
    4.7140    0.7805    1.3831 H   0  0  0  0  0  0
    5.5072    0.1282   -0.0239 H   0  0  0  0  0  0
    5.5698    2.6415   -0.0321 H   0  0  0  0  0  0
    4.6454    2.0429   -1.3814 H   0  0  0  0  0  0
    3.3337    3.8696   -0.4983 H   0  0  0  0  0  0
    3.5574    3.3363    1.1580 H   0  0  0  0  0  0
    0.3739    3.5476    0.1072 H   0  0  0  0  0  0
   -0.9841    1.1586   -0.0460 H   0  0  0  0  0  0
  1  2  2  0  0  0
  1  6  1  0  0  0
  1  7  1  0  0  0
  2  3  1  0  0  0
  2  9  1  0  0  0
  3  4  1  0  0  0
  3 10  1  0  0  0
  3 11  1  0  0  0
  4  5  1  0  0  0
  4 12  1  0  0  0
  4 13  1  0  0  0
  5  6  1  0  0  0
  5 14  1  0  0  0
  5 15  1  0  0  0
  6 16  1  0  0  0
  6 17  1  0  0  0
  7  8  2  0  0  0
  7 18  1  0  0  0
  8  9  1  0  0  0
  8 19  1  0  0  0
M  END
> <s_m_entry_name>
Schrodinger_fragment_115

> <i_m_number_of_atoms>
19

> <r_m_molecular_weight>
122.1683

> <s_m_molecular_formula>
C8H10O1

> <r_epik_Ionization_Penalty>
  0.0000

> <r_epik_Ionization_Penalty_Charging>
  0.0000

> <r_epik_Ionization_Penalty_Neutral>
  0.0000

> <r_epik_State_Penalty>
  0.0000

> <i_epik_Tot_Q>
0

> <r_epik_Metal_State_Penalty>
  0.0000

> <b_epik_Metal_Only>
0

> <s_m_entry_id>
4500

> <s_canvas_Unique_SMILES_Stereo>
c1coc(c12)CCCC2

$$$$
Schrodinger_fragment_104
                    3D
 Structure written by MMmdl.
 20 21  0  0  1  0            999 V2000
    2.1610    2.1289   -0.0260 C   0  0  0  0  0  0
    2.1838    0.7677    0.0489 C   0  0  0  0  0  0
    3.3931   -0.1055    0.0976 C   0  0  0  0  0  0
    4.6615    0.7047   -0.2539 C   0  0  0  0  0  0
    4.6510    2.1374    0.3377 C   0  0  0  0  0  0
    3.4144    2.9644   -0.0902 C   0  0  0  0  0  0
    0.7912    2.5303   -0.0320 C   0  0  0  0  0  0
    0.0187    1.4023    0.0460 C   0  0  0  0  0  0
    0.8798    0.3255    0.0990 N   0  0  0  0  0  0
    3.4940   -0.5177    1.1025 H   0  0  0  0  0  0
    3.2872   -0.9554   -0.5780 H   0  0  0  0  0  0
    5.5530    0.1602    0.0595 H   0  0  0  0  0  0
    4.7275    0.7917   -1.3393 H   0  0  0  0  0  0
    4.6561    2.0545    1.4255 H   0  0  0  0  0  0
    5.5648    2.6700    0.0717 H   0  0  0  0  0  0
    3.5376    3.3137   -1.1161 H   0  0  0  0  0  0
    3.3072    3.8505    0.5368 H   0  0  0  0  0  0
    0.4102    3.5420   -0.0858 H   0  0  0  0  0  0
   -1.0557    1.2655    0.0704 H   0  0  0  0  0  0
    0.5901   -0.6472    0.1643 H   0  0  0  0  0  0
  1  2  2  0  0  0
  1  6  1  0  0  0
  1  7  1  0  0  0
  2  3  1  0  0  0
  2  9  1  0  0  0
  3  4  1  0  0  0
  3 10  1  0  0  0
  3 11  1  0  0  0
  4  5  1  0  0  0
  4 12  1  0  0  0
  4 13  1  0  0  0
  5  6  1  0  0  0
  5 14  1  0  0  0
  5 15  1  0  0  0
  6 16  1  0  0  0
  6 17  1  0  0  0
  7  8  2  0  0  0
  7 18  1  0  0  0
  8  9  1  0  0  0
  8 19  1  0  0  0
  9 20  1  0  0  0
M  END
> <s_m_entry_name>
Schrodinger_fragment_116

> <i_m_number_of_atoms>
20

> <r_m_molecular_weight>
121.18357

> <s_m_molecular_formula>
C8H11N1

> <r_epik_Ionization_Penalty>
  0.0000

> <r_epik_Ionization_Penalty_Charging>
  0.0000

> <r_epik_Ionization_Penalty_Neutral>
  0.0000

> <r_epik_State_Penalty>
  0.0000

> <i_epik_Tot_Q>
0

> <r_epik_Metal_State_Penalty>
  0.0000

> <b_epik_Metal_Only>
0

> <s_m_entry_id>
4501

> <s_canvas_Unique_SMILES_Stereo>
c1c[nH]c(c12)CCCC2

$$$$
Schrodinger_fragment_105
                    3D
 Structure written by MMmdl.
 18 19  0  0  1  0            999 V2000
    2.2052    2.1278   -0.0087 C   0  0  0  0  0  0
    2.1830    0.7408   -0.0853 C   0  0  0  0  0  0
    3.3717   -0.0080   -0.0500 C   0  0  0  0  0  0
    4.5967    0.6900    0.0529 C   0  0  0  0  0  0
    4.6178    2.1044    0.1235 C   0  0  0  0  0  0
    3.4125    2.8411    0.0955 C   0  0  0  0  0  0
    0.8079    2.6794   -0.0305 C   0  0  0  0  0  0
   -0.0301    1.3811   -0.0497 C   0  0  0  0  0  0
    0.9296    0.2816   -0.1740 N   0  0  0  0  0  0
    3.3583   -1.0878   -0.1039 H   0  0  0  0  0  0
    5.5258    0.1377    0.0785 H   0  0  0  0  0  0
    5.5630    2.6242    0.2035 H   0  0  0  0  0  0
    3.4188    3.9205    0.1570 H   0  0  0  0  0  0
    0.6043    3.2902    0.8499 H   0  0  0  0  0  0
    0.6490    3.2801   -0.9268 H   0  0  0  0  0  0
   -0.5950    1.2715    0.8777 H   0  0  0  0  0  0
   -0.7420    1.3785   -0.8766 H   0  0  0  0  0  0
    0.7077   -0.6281    0.2276 H   0  0  0  0  0  0
  1  2  2  0  0  0
  1  6  1  0  0  0
  1  7  1  0  0  0
  2  3  1  0  0  0
  2  9  1  0  0  0
  3  4  2  0  0  0
  3 10  1  0  0  0
  4  5  1  0  0  0
  4 11  1  0  0  0
  5  6  2  0  0  0
  5 12  1  0  0  0
  6 13  1  0  0  0
  7  8  1  0  0  0
  7 14  1  0  0  0
  7 15  1  0  0  0
  8  9  1  0  0  0
  8 16  1  0  0  0
  8 17  1  0  0  0
  9 18  1  0  0  0
M  END
> <s_m_entry_name>
Schrodinger_fragment_117

> <i_m_number_of_atoms>
18

> <r_m_molecular_weight>
119.16763

> <s_m_molecular_formula>
C8H9N1

> <r_epik_Ionization_Penalty>
  0.0017

> <r_epik_Ionization_Penalty_Charging>
  0.0000

> <r_epik_Ionization_Penalty_Neutral>
  0.0017

> <r_epik_State_Penalty>
  0.0000

> <i_epik_Tot_Q>
0

> <r_epik_Metal_State_Penalty>
  0.0000

> <b_epik_Metal_Only>
0

> <s_m_entry_id>
4502

> <s_canvas_Unique_SMILES_Stereo>
C1CNc(c12)cccc2

$$$$
Schrodinger_fragment_106
                    3D
 Structure written by MMmdl.
 19 20  0  0  1  0            999 V2000
    2.2212    2.1242    0.0605 C   0  0  0  0  0  0
    2.2232    0.7384    0.0557 C   0  0  0  0  0  0
    3.4241    0.0066    0.0307 C   0  0  0  0  0  0
    4.6400    0.7269    0.0124 C   0  0  0  0  0  0
    4.6379    2.1432    0.0173 C   0  0  0  0  0  0
    3.4198    2.8597    0.0404 C   0  0  0  0  0  0
    0.8083    2.6484    0.0805 C   0  0  0  0  0  0
    0.8120    0.2098    0.0720 C   0  0  0  0  0  0
    3.4193   -1.0751    0.0253 H   0  0  0  0  0  0
    5.5800    0.1921   -0.0063 H   0  0  0  0  0  0
    5.5763    2.6809    0.0021 H   0  0  0  0  0  0
    3.4118    3.9414    0.0425 H   0  0  0  0  0  0
    0.5961    3.1156    1.0426 H   0  0  0  0  0  0
    0.6327    3.3745   -0.7136 H   0  0  0  0  0  0
    0.6386   -0.5113   -0.7272 H   0  0  0  0  0  0
    0.6011   -0.2648    1.0308 H   0  0  0  0  0  0
   -0.0161    1.4285   -0.1071 N   0  3  0  0  0  0
   -0.8038    1.4251    0.5172 H   0  0  0  0  0  0
   -0.3631    1.4312   -1.0503 H   0  0  0  0  0  0
  1  2  2  0  0  0
  1  6  1  0  0  0
  1  7  1  0  0  0
  2  3  1  0  0  0
  2  8  1  0  0  0
  3  4  2  0  0  0
  3  9  1  0  0  0
  4  5  1  0  0  0
  4 10  1  0  0  0
  5  6  2  0  0  0
  5 11  1  0  0  0
  6 12  1  0  0  0
  7 13  1  0  0  0
  7 14  1  0  0  0
  7 17  1  0  0  0
  8 15  1  0  0  0
  8 16  1  0  0  0
  8 17  1  0  0  0
 17 18  1  0  0  0
 17 19  1  0  0  0
M  CHG  1  17   1
M  END
> <s_m_entry_name>
Schrodinger_fragment_118

> <i_m_number_of_atoms>
19

> <r_m_molecular_weight>
120.1756

> <s_m_molecular_formula>
C8H10N1

> <r_epik_Ionization_Penalty>
  0.0049

> <r_epik_Ionization_Penalty_Charging>
  0.0049

> <r_epik_Ionization_Penalty_Neutral>
  0.0000

> <r_epik_State_Penalty>
  0.0000

> <i_epik_Tot_Q>
1

> <r_epik_Metal_State_Penalty>
  0.0000

> <b_epik_Metal_Only>
0

> <s_m_entry_id>
4503

> <s_canvas_Unique_SMILES_Stereo>
C1[NH2+]Cc(c12)cccc2

$$$$
Schrodinger_fragment_107
                    3D
 Structure written by MMmdl.
 14 15  0  0  1  0            999 V2000
    2.2392    0.6544    0.0234 C   0  0  0  0  0  0
    2.1594    2.0802    0.0243 C   0  0  0  0  0  0
    3.3715    2.8021    0.0273 C   0  0  0  0  0  0
    4.6180    2.1444    0.0293 C   0  0  0  0  0  0
    4.6704    0.7375    0.0284 C   0  0  0  0  0  0
    3.4788   -0.0128    0.0254 C   0  0  0  0  0  0
    0.6156   -0.0329    0.0196 S   0  0  0  0  0  0
   -0.0206    1.6134    0.0195 C   0  0  0  0  0  0
    0.8709    2.6146    0.0221 N   0  0  0  0  0  0
    3.3361    3.8825    0.0281 H   0  0  0  0  0  0
    5.5343    2.7206    0.0316 H   0  0  0  0  0  0
    5.6298    0.2324    0.0299 H   0  0  0  0  0  0
    3.5107   -1.0947    0.0246 H   0  0  0  0  0  0
   -1.0811    1.8331    0.0176 H   0  0  0  0  0  0
  1  2  2  0  0  0
  1  6  1  0  0  0
  1  7  1  0  0  0
  2  3  1  0  0  0
  2  9  1  0  0  0
  3  4  2  0  0  0
  3 10  1  0  0  0
  4  5  1  0  0  0
  4 11  1  0  0  0
  5  6  2  0  0  0
  5 12  1  0  0  0
  6 13  1  0  0  0
  7  8  1  0  0  0
  8  9  2  0  0  0
  8 14  1  0  0  0
M  END
> <s_m_entry_name>
Schrodinger_fragment_119

> <i_m_number_of_atoms>
14

> <r_m_molecular_weight>
135.1886

> <s_m_molecular_formula>
C7H5N1S1

> <r_epik_Ionization_Penalty>
  0.0000

> <r_epik_Ionization_Penalty_Charging>
  0.0000

> <r_epik_Ionization_Penalty_Neutral>
  0.0000

> <r_epik_State_Penalty>
  0.0000

> <i_epik_Tot_Q>
0

> <r_epik_Metal_State_Penalty>
  0.0000

> <b_epik_Metal_Only>
0

> <s_m_entry_id>
4504

> <s_canvas_Unique_SMILES_Stereo>
n1csc(c12)cccc2

$$$$
Schrodinger_fragment_108
                    3D
 Structure written by MMmdl.
 14 15  0  0  1  0            999 V2000
    2.1695    0.7610    0.0237 C   0  0  0  0  0  0
    2.1490    2.1757    0.0241 C   0  0  0  0  0  0
    3.3855    2.8557    0.0267 C   0  0  0  0  0  0
    4.5971    2.1258    0.0288 C   0  0  0  0  0  0
    4.5856    0.7120    0.0283 C   0  0  0  0  0  0
    3.3590    0.0147    0.0257 C   0  0  0  0  0  0
    0.8629    0.3106    0.0211 O   0  0  0  0  0  0
    0.1382    1.4735    0.0201 C   0  0  0  0  0  0
    0.8390    2.6211    0.0218 N   0  0  0  0  0  0
    3.3983    3.9372    0.0271 H   0  0  0  0  0  0
    5.5432    2.6545    0.0307 H   0  0  0  0  0  0
    5.5208    0.1633    0.0299 H   0  0  0  0  0  0
    3.3282   -1.0666    0.0253 H   0  0  0  0  0  0
   -0.9434    1.4360    0.0180 H   0  0  0  0  0  0
  1  2  2  0  0  0
  1  6  1  0  0  0
  1  7  1  0  0  0
  2  3  1  0  0  0
  2  9  1  0  0  0
  3  4  2  0  0  0
  3 10  1  0  0  0
  4  5  1  0  0  0
  4 11  1  0  0  0
  5  6  2  0  0  0
  5 12  1  0  0  0
  6 13  1  0  0  0
  7  8  1  0  0  0
  8  9  2  0  0  0
  8 14  1  0  0  0
M  END
> <s_m_entry_name>
Schrodinger_fragment_120

> <i_m_number_of_atoms>
14

> <r_m_molecular_weight>
119.124

> <s_m_molecular_formula>
C7H5N1O1

> <r_epik_Ionization_Penalty>
  0.0000

> <r_epik_Ionization_Penalty_Charging>
  0.0000

> <r_epik_Ionization_Penalty_Neutral>
  0.0000

> <r_epik_State_Penalty>
  0.0000

> <i_epik_Tot_Q>
0

> <r_epik_Metal_State_Penalty>
  0.0000

> <b_epik_Metal_Only>
0

> <s_m_entry_id>
4505

> <s_canvas_Unique_SMILES_Stereo>
n1coc(c12)cccc2

$$$$
Schrodinger_fragment_109
                    3D
 Structure written by MMmdl.
 14 15  0  0  1  0            999 V2000
    2.1670    2.1214    0.0236 C   0  0  0  0  0  0
    2.2022    0.7254    0.0224 C   0  0  0  0  0  0
    3.3998   -0.0044    0.0250 C   0  0  0  0  0  0
    4.6115    0.7219    0.0290 C   0  0  0  0  0  0
    4.5978    2.1390    0.0303 C   0  0  0  0  0  0
    3.3755    2.8519    0.0276 C   0  0  0  0  0  0
    0.8217    2.5385    0.0203 C   0  0  0  0  0  0
    0.0196    1.4714    0.0171 N   0  0  0  0  0  0
    0.8705    0.3289    0.0184 O   0  0  0  0  0  0
    3.3909   -1.0846    0.0240 H   0  0  0  0  0  0
    5.5542    0.1926    0.0311 H   0  0  0  0  0  0
    5.5335    2.6822    0.0333 H   0  0  0  0  0  0
    3.3669    3.9332    0.0286 H   0  0  0  0  0  0
    0.4802    3.5635    0.0203 H   0  0  0  0  0  0
  1  2  2  0  0  0
  1  6  1  0  0  0
  1  7  1  0  0  0
  2  3  1  0  0  0
  2  9  1  0  0  0
  3  4  2  0  0  0
  3 10  1  0  0  0
  4  5  1  0  0  0
  4 11  1  0  0  0
  5  6  2  0  0  0
  5 12  1  0  0  0
  6 13  1  0  0  0
  7  8  2  0  0  0
  7 14  1  0  0  0
  8  9  1  0  0  0
M  END
> <s_m_entry_name>
Schrodinger_fragment_121

> <i_m_number_of_atoms>
14

> <r_m_molecular_weight>
119.124

> <s_m_molecular_formula>
C7H5N1O1

> <r_epik_Ionization_Penalty>
  0.0000

> <r_epik_Ionization_Penalty_Charging>
  0.0000

> <r_epik_Ionization_Penalty_Neutral>
  0.0000

> <r_epik_State_Penalty>
  0.0000

> <i_epik_Tot_Q>
0

> <r_epik_Metal_State_Penalty>
  0.0000

> <b_epik_Metal_Only>
0

> <s_m_entry_id>
4506

> <s_canvas_Unique_SMILES_Stereo>
c1noc(c12)cccc2

$$$$
Schrodinger_fragment_110
                    3D
 Structure written by MMmdl.
 14 15  0  0  1  0            999 V2000
    2.1721    2.2305    0.0251 C   0  0  0  0  0  0
    2.2343    0.8125    0.0240 C   0  0  0  0  0  0
    3.3512    0.0284    0.0245 N   0  0  0  0  0  0
    4.5135    0.7186    0.0262 C   0  0  0  0  0  0
    4.5965    2.1256    0.0274 C   0  0  0  0  0  0
    3.4156    2.8960    0.0269 C   0  0  0  0  0  0
    0.7811    2.5828    0.0240 C   0  0  0  0  0  0
    0.0953    1.3918    0.0223 C   0  0  0  0  0  0
    0.9449    0.3147    0.0223 O   0  0  0  0  0  0
    5.4182    0.1257    0.0266 H   0  0  0  0  0  0
    5.5676    2.6082    0.0288 H   0  0  0  0  0  0
    3.4572    3.9767    0.0278 H   0  0  0  0  0  0
    0.3648    3.5833    0.0244 H   0  0  0  0  0  0
   -0.9621    1.1532    0.0211 H   0  0  0  0  0  0
  1  2  2  0  0  0
  1  6  1  0  0  0
  1  7  1  0  0  0
  2  3  1  0  0  0
  2  9  1  0  0  0
  3  4  2  0  0  0
  4  5  1  0  0  0
  4 10  1  0  0  0
  5  6  2  0  0  0
  5 11  1  0  0  0
  6 12  1  0  0  0
  7  8  2  0  0  0
  7 13  1  0  0  0
  8  9  1  0  0  0
  8 14  1  0  0  0
M  END
> <s_m_entry_name>
Schrodinger_fragment_122

> <i_m_number_of_atoms>
14

> <r_m_molecular_weight>
119.124

> <s_m_molecular_formula>
C7H5N1O1

> <r_epik_Ionization_Penalty>
  0.0003

> <r_epik_Ionization_Penalty_Charging>
  0.0000

> <r_epik_Ionization_Penalty_Neutral>
  0.0003

> <r_epik_State_Penalty>
  0.0000

> <i_epik_Tot_Q>
0

> <r_epik_Metal_State_Penalty>
  0.0000

> <b_epik_Metal_Only>
0

> <s_m_entry_id>
4507

> <s_canvas_Unique_SMILES_Stereo>
c1coc(c12)nccc2

$$$$
Schrodinger_fragment_111
                    3D
 Structure written by MMmdl.
 15 16  0  0  1  0            999 V2000
    2.2228    2.1056    0.0245 C   0  0  0  0  0  0
    2.2194    0.6803    0.0243 C   0  0  0  0  0  0
    3.4316   -0.0263    0.0258 C   0  0  0  0  0  0
    4.6162    0.7306    0.0274 C   0  0  0  0  0  0
    4.5226    2.1364    0.0275 C   0  0  0  0  0  0
    3.3534    2.8223    0.0260 N   0  0  0  0  0  0
    0.8539    2.5358    0.0228 C   0  0  0  0  0  0
    0.0676    1.4103    0.0216 C   0  0  0  0  0  0
    0.8925    0.2981    0.0225 N   0  0  0  0  0  0
    3.4525   -1.1074    0.0257 H   0  0  0  0  0  0
    5.5861    0.2466    0.0286 H   0  0  0  0  0  0
    5.4233    2.7349    0.0287 H   0  0  0  0  0  0
    0.5224    3.5664    0.0225 H   0  0  0  0  0  0
   -1.0126    1.3094    0.0202 H   0  0  0  0  0  0
    0.5380   -0.6556    0.0220 H   0  0  0  0  0  0
  1  2  2  0  0  0
  1  6  1  0  0  0
  1  7  1  0  0  0
  2  3  1  0  0  0
  2  9  1  0  0  0
  3  4  2  0  0  0
  3 10  1  0  0  0
  4  5  1  0  0  0
  4 11  1  0  0  0
  5  6  2  0  0  0
  5 12  1  0  0  0
  7  8  2  0  0  0
  7 13  1  0  0  0
  8  9  1  0  0  0
  8 14  1  0  0  0
  9 15  1  0  0  0
M  END
> <s_m_entry_name>
Schrodinger_fragment_124

> <i_m_number_of_atoms>
15

> <r_m_molecular_weight>
118.13927

> <s_m_molecular_formula>
C7H6N2

> <r_epik_Ionization_Penalty>
  0.3172

> <r_epik_Ionization_Penalty_Charging>
  0.0000

> <r_epik_Ionization_Penalty_Neutral>
  0.3172

> <r_epik_State_Penalty>
  0.3172

> <i_epik_Tot_Q>
0

> <r_epik_Metal_State_Penalty>
  0.2044

> <b_epik_Metal_Only>
0

> <s_m_entry_id>
4508

> <s_canvas_Unique_SMILES_Stereo>
c1c[nH]c(c12)cccn2

$$$$
Schrodinger_fragment_111_a
                    3D
 Structure written by MMmdl.
 16 17  0  0  1  0            999 V2000
    2.2060    2.1153    0.0245 C   0  0  0  0  0  0
    2.2133    0.6911    0.0243 C   0  0  0  0  0  0
    3.4354   -0.0087    0.0258 C   0  0  0  0  0  0
    4.6332    0.7393    0.0274 C   0  0  0  0  0  0
    4.5668    2.1516    0.0275 C   0  0  0  0  0  0
    3.3628    2.7733    0.0260 N   0  3  0  0  0  0
    0.8351    2.5469    0.0227 C   0  0  0  0  0  0
    0.0555    1.4165    0.0216 C   0  0  0  0  0  0
    0.8869    0.3090    0.0225 N   0  0  0  0  0  0
    3.4561   -1.0891    0.0257 H   0  0  0  0  0  0
    5.5929    0.2374    0.0286 H   0  0  0  0  0  0
    5.4377    2.7963    0.0287 H   0  0  0  0  0  0
    0.4834    3.5711    0.0224 H   0  0  0  0  0  0
   -1.0240    1.3101    0.0202 H   0  0  0  0  0  0
    0.5296   -0.6418    0.0220 H   0  0  0  0  0  0
    3.3410    3.7944    0.0261 H   0  0  0  0  0  0
  1  2  2  0  0  0
  1  6  1  0  0  0
  1  7  1  0  0  0
  2  3  1  0  0  0
  2  9  1  0  0  0
  3  4  2  0  0  0
  3 10  1  0  0  0
  4  5  1  0  0  0
  4 11  1  0  0  0
  5  6  2  0  0  0
  5 12  1  0  0  0
  6 16  1  0  0  0
  7  8  2  0  0  0
  7 13  1  0  0  0
  8  9  1  0  0  0
  8 14  1  0  0  0
  9 15  1  0  0  0
M  CHG  1   6   1
M  END
> <s_m_entry_name>
Schrodinger_fragment_124

> <i_m_number_of_atoms>
15

> <r_m_molecular_weight>
118.13927

> <s_m_molecular_formula>
C7H6N2

> <r_epik_Ionization_Penalty>
  0.5218

> <r_epik_Ionization_Penalty_Charging>
  0.5218

> <r_epik_Ionization_Penalty_Neutral>
  0.0000

> <r_epik_State_Penalty>
  0.5218

> <i_epik_Tot_Q>
1

> <r_epik_Metal_State_Penalty>
  0.7299

> <b_epik_Metal_Only>
0

> <s_m_entry_id>
4509

> <s_canvas_Unique_SMILES_Stereo>
c1c[nH]c(c12)ccc[nH+]2

$$$$
Schrodinger_fragment_112
                    3D
 Structure written by MMmdl.
 19 20  0  0  1  0            999 V2000
    4.2101   -2.6842    0.0238 C   0  0  0  0  0  0
    4.2155   -4.1082    0.0242 C   0  0  0  0  0  0
    5.4417   -4.8022    0.0275 C   0  0  0  0  0  0
    6.6396   -4.0537    0.0304 C   0  0  0  0  0  0
    6.5712   -2.6418    0.0299 C   0  0  0  0  0  0
    5.3661   -2.0229    0.0266 N   0  3  0  0  0  0
    2.8438   -2.2543    0.0202 C   0  0  0  0  0  0
    2.0722   -3.3887    0.0184 C   0  0  0  0  0  0
    2.8895   -4.5149    0.0208 N   0  0  0  0  0  0
    2.4237   -5.8890    0.0199 C   0  0  0  0  0  0
    5.4593   -5.8821    0.0278 H   0  0  0  0  0  0
    7.5999   -4.5546    0.0330 H   0  0  0  0  0  0
    7.4411   -1.9956    0.0320 H   0  0  0  0  0  0
    2.4876   -1.2329    0.0190 H   0  0  0  0  0  0
    0.9930   -3.4844    0.0157 H   0  0  0  0  0  0
    1.3336   -5.9243    0.0171 H   0  0  0  0  0  0
    2.7887   -6.4043    0.9091 H   0  0  0  0  0  0
    2.7933   -6.4047   -0.8671 H   0  0  0  0  0  0
    5.3426   -1.0015    0.0263 H   0  0  0  0  0  0
  1  2  2  0  0  0
  1  6  1  0  0  0
  1  7  1  0  0  0
  2  3  1  0  0  0
  2  9  1  0  0  0
  3  4  2  0  0  0
  3 11  1  0  0  0
  4  5  1  0  0  0
  4 12  1  0  0  0
  5  6  2  0  0  0
  5 13  1  0  0  0
  6 19  1  0  0  0
  7  8  2  0  0  0
  7 14  1  0  0  0
  8  9  1  0  0  0
  8 15  1  0  0  0
  9 10  1  0  0  0
 10 16  1  0  0  0
 10 17  1  0  0  0
 10 18  1  0  0  0
M  CHG  1   6   1
M  END
> <s_m_entry_name>
Schrodinger_fragment_126

> <i_m_number_of_atoms>
18

> <r_m_molecular_weight>
132.16636

> <s_m_molecular_formula>
C8H8N2

> <r_epik_Ionization_Penalty>
  0.3937

> <r_epik_Ionization_Penalty_Charging>
  0.3937

> <r_epik_Ionization_Penalty_Neutral>
  0.0000

> <r_epik_State_Penalty>
  0.3937

> <i_epik_Tot_Q>
1

> <r_epik_Metal_State_Penalty>
  4.0590

> <b_epik_Metal_Only>
0

> <s_m_entry_id>
4510

> <s_canvas_Unique_SMILES_Stereo>
c1cn(C)c(c12)ccc[nH+]2

$$$$
Schrodinger_fragment_112_a
                    3D
 Structure written by MMmdl.
 18 19  0  0  1  0            999 V2000
    4.2276   -2.6945    0.0238 C   0  0  0  0  0  0
    4.2225   -4.1195    0.0242 C   0  0  0  0  0  0
    5.4397   -4.8198    0.0275 C   0  0  0  0  0  0
    6.6245   -4.0620    0.0304 C   0  0  0  0  0  0
    6.5282   -2.6568    0.0298 C   0  0  0  0  0  0
    5.3574   -1.9743    0.0266 N   0  0  0  0  0  0
    2.8633   -2.2647    0.0202 C   0  0  0  0  0  0
    2.0840   -3.3936    0.0185 C   0  0  0  0  0  0
    2.8955   -4.5217    0.0208 N   0  0  0  0  0  0
    2.4247   -5.8934    0.0199 C   0  0  0  0  0  0
    5.4595   -5.9006    0.0278 H   0  0  0  0  0  0
    7.5949   -4.5448    0.0330 H   0  0  0  0  0  0
    7.4276   -2.0563    0.0320 H   0  0  0  0  0  0
    2.5284   -1.2362    0.0191 H   0  0  0  0  0  0
    1.0040   -3.4843    0.0157 H   0  0  0  0  0  0
    1.3344   -5.9245    0.0171 H   0  0  0  0  0  0
    2.7882   -6.4100    0.9089 H   0  0  0  0  0  0
    2.7928   -6.4105   -0.8669 H   0  0  0  0  0  0
  1  2  2  0  0  0
  1  6  1  0  0  0
  1  7  1  0  0  0
  2  3  1  0  0  0
  2  9  1  0  0  0
  3  4  2  0  0  0
  3 11  1  0  0  0
  4  5  1  0  0  0
  4 12  1  0  0  0
  5  6  2  0  0  0
  5 13  1  0  0  0
  7  8  2  0  0  0
  7 14  1  0  0  0
  8  9  1  0  0  0
  8 15  1  0  0  0
  9 10  1  0  0  0
 10 16  1  0  0  0
 10 17  1  0  0  0
 10 18  1  0  0  0
M  END
> <s_m_entry_name>
Schrodinger_fragment_126

> <i_m_number_of_atoms>
18

> <r_m_molecular_weight>
132.16636

> <s_m_molecular_formula>
C8H8N2

> <r_epik_Ionization_Penalty>
  0.4281

> <r_epik_Ionization_Penalty_Charging>
  0.0000

> <r_epik_Ionization_Penalty_Neutral>
  0.4281

> <r_epik_State_Penalty>
  0.4281

> <i_epik_Tot_Q>
0

> <r_epik_Metal_State_Penalty>
  0.0006

> <b_epik_Metal_Only>
0

> <s_m_entry_id>
4511

> <s_canvas_Unique_SMILES_Stereo>
c1cn(C)c(c12)cccn2

$$$$
Schrodinger_fragment_113
                    3D
 Structure written by MMmdl.
 16 17  0  0  1  0            999 V2000
    2.1594    2.1497    0.0249 C   0  0  0  0  0  0
    2.2098    0.7232    0.0240 C   0  0  0  0  0  0
    3.4450    0.0497    0.0250 C   0  0  0  0  0  0
    4.5987    0.7522    0.0267 N   0  3  0  0  0  0
    4.6169    2.1052    0.0276 C   0  0  0  0  0  0
    3.4015    2.8288    0.0268 C   0  0  0  0  0  0
    0.7775    2.5402    0.0237 C   0  0  0  0  0  0
    0.0315    1.3880    0.0221 C   0  0  0  0  0  0
    0.8941    0.3042    0.0223 N   0  0  0  0  0  0
    3.5445   -1.0268    0.0244 H   0  0  0  0  0  0
    5.5966    2.5684    0.0290 H   0  0  0  0  0  0
    3.4184    3.9095    0.0275 H   0  0  0  0  0  0
    0.4030    3.5556    0.0239 H   0  0  0  0  0  0
   -1.0445    1.2514    0.0208 H   0  0  0  0  0  0
    0.5643   -0.6563    0.0213 H   0  0  0  0  0  0
    5.4894    0.2443    0.0274 H   0  0  0  0  0  0
  1  2  2  0  0  0
  1  6  1  0  0  0
  1  7  1  0  0  0
  2  3  1  0  0  0
  2  9  1  0  0  0
  3  4  2  0  0  0
  3 10  1  0  0  0
  4  5  1  0  0  0
  4 16  1  0  0  0
  5  6  2  0  0  0
  5 11  1  0  0  0
  6 12  1  0  0  0
  7  8  2  0  0  0
  7 13  1  0  0  0
  8  9  1  0  0  0
  8 14  1  0  0  0
  9 15  1  0  0  0
M  CHG  1   4   1
M  END
> <s_m_entry_name>
Schrodinger_fragment_128

> <i_m_number_of_atoms>
15

> <r_m_molecular_weight>
118.13927

> <s_m_molecular_formula>
C7H6N2

> <r_epik_Ionization_Penalty>
  0.0630

> <r_epik_Ionization_Penalty_Charging>
  0.0630

> <r_epik_Ionization_Penalty_Neutral>
  0.0000

> <r_epik_State_Penalty>
  0.0630

> <i_epik_Tot_Q>
1

> <r_epik_Metal_State_Penalty>
  0.4425

> <b_epik_Metal_Only>
0

> <s_m_entry_id>
4512

> <s_canvas_Unique_SMILES_Stereo>
c1c[nH]c(c12)c[nH+]cc2

$$$$
Schrodinger_fragment_113_a
                    3D
 Structure written by MMmdl.
 15 16  0  0  1  0            999 V2000
    2.1577    2.1557    0.0249 C   0  0  0  0  0  0
    2.2146    0.7376    0.0241 C   0  0  0  0  0  0
    3.4516    0.0676    0.0250 C   0  0  0  0  0  0
    4.6221    0.7432    0.0267 N   0  0  0  0  0  0
    4.5891    2.0924    0.0276 C   0  0  0  0  0  0
    3.3923    2.8267    0.0267 C   0  0  0  0  0  0
    0.7758    2.5434    0.0237 C   0  0  0  0  0  0
    0.0330    1.3891    0.0221 C   0  0  0  0  0  0
    0.9000    0.3090    0.0223 N   0  0  0  0  0  0
    3.5015   -1.0117    0.0243 H   0  0  0  0  0  0
    5.5436    2.5998    0.0290 H   0  0  0  0  0  0
    3.4219    3.9081    0.0275 H   0  0  0  0  0  0
    0.4032    3.5606    0.0239 H   0  0  0  0  0  0
   -1.0424    1.2465    0.0208 H   0  0  0  0  0  0
    0.5806   -0.6570    0.0213 H   0  0  0  0  0  0
  1  2  2  0  0  0
  1  6  1  0  0  0
  1  7  1  0  0  0
  2  3  1  0  0  0
  2  9  1  0  0  0
  3  4  2  0  0  0
  3 10  1  0  0  0
  4  5  1  0  0  0
  5  6  2  0  0  0
  5 11  1  0  0  0
  6 12  1  0  0  0
  7  8  2  0  0  0
  7 13  1  0  0  0
  8  9  1  0  0  0
  8 14  1  0  0  0
  9 15  1  0  0  0
M  END
> <s_m_entry_name>
Schrodinger_fragment_128

> <i_m_number_of_atoms>
15

> <r_m_molecular_weight>
118.13927

> <s_m_molecular_formula>
C7H6N2

> <r_epik_Ionization_Penalty>
  1.3590

> <r_epik_Ionization_Penalty_Charging>
  0.0000

> <r_epik_Ionization_Penalty_Neutral>
  1.3590

> <r_epik_State_Penalty>
  1.3590

> <i_epik_Tot_Q>
0

> <r_epik_Metal_State_Penalty>
  0.3805

> <b_epik_Metal_Only>
0

> <s_m_entry_id>
4513

> <s_canvas_Unique_SMILES_Stereo>
c1c[nH]c(c12)cncc2

$$$$
Schrodinger_fragment_114
                    3D
 Structure written by MMmdl.
 19 20  0  0  1  0            999 V2000
    4.1599   -2.6454    0.0246 C   0  0  0  0  0  0
    4.2038   -4.0717    0.0243 C   0  0  0  0  0  0
    5.4406   -4.7436    0.0271 C   0  0  0  0  0  0
    6.5970   -4.0449    0.0300 N   0  3  0  0  0  0
    6.6178   -2.6923    0.0304 C   0  0  0  0  0  0
    5.4035   -1.9672    0.0277 C   0  0  0  0  0  0
    2.7839   -2.2520    0.0214 C   0  0  0  0  0  0
    2.0422   -3.4055    0.0193 C   0  0  0  0  0  0
    2.8878   -4.5106    0.0210 N   0  0  0  0  0  0
    2.4563   -5.8959    0.0196 C   0  0  0  0  0  0
    5.5329   -5.8201    0.0270 H   0  0  0  0  0  0
    7.5983   -2.2306    0.0329 H   0  0  0  0  0  0
    5.4222   -0.8864    0.0280 H   0  0  0  0  0  0
    2.4084   -1.2380    0.0207 H   0  0  0  0  0  0
    0.9658   -3.5279    0.0167 H   0  0  0  0  0  0
    1.3674   -5.9583    0.0170 H   0  0  0  0  0  0
    2.8342   -6.4022    0.9085 H   0  0  0  0  0  0
    2.8385   -6.4017   -0.8677 H   0  0  0  0  0  0
    7.4868   -4.5548    0.0321 H   0  0  0  0  0  0
  1  2  2  0  0  0
  1  6  1  0  0  0
  1  7  1  0  0  0
  2  3  1  0  0  0
  2  9  1  0  0  0
  3  4  2  0  0  0
  3 11  1  0  0  0
  4  5  1  0  0  0
  4 19  1  0  0  0
  5  6  2  0  0  0
  5 12  1  0  0  0
  6 13  1  0  0  0
  7  8  2  0  0  0
  7 14  1  0  0  0
  8  9  1  0  0  0
  8 15  1  0  0  0
  9 10  1  0  0  0
 10 16  1  0  0  0
 10 17  1  0  0  0
 10 18  1  0  0  0
M  CHG  1   4   1
M  END
> <s_m_entry_name>
Schrodinger_fragment_130

> <i_m_number_of_atoms>
18

> <r_m_molecular_weight>
132.16636

> <s_m_molecular_formula>
C8H8N2

> <r_epik_Ionization_Penalty>
  0.0415

> <r_epik_Ionization_Penalty_Charging>
  0.0415

> <r_epik_Ionization_Penalty_Neutral>
  0.0000

> <r_epik_State_Penalty>
  0.0415

> <i_epik_Tot_Q>
1

> <r_epik_Metal_State_Penalty>
  2.5472

> <b_epik_Metal_Only>
0

> <s_m_entry_id>
4514

> <s_canvas_Unique_SMILES_Stereo>
c1cn(C)c(c12)c[nH+]cc2

$$$$
Schrodinger_fragment_114_a
                    3D
 Structure written by MMmdl.
 18 19  0  0  1  0            999 V2000
    4.1568   -2.6430    0.0246 C   0  0  0  0  0  0
    4.2062   -4.0616    0.0243 C   0  0  0  0  0  0
    5.4461   -4.7280    0.0271 C   0  0  0  0  0  0
    6.6196   -4.0557    0.0301 N   0  0  0  0  0  0
    6.5890   -2.7070    0.0304 C   0  0  0  0  0  0
    5.3929   -1.9721    0.0277 C   0  0  0  0  0  0
    2.7814   -2.2500    0.0214 C   0  0  0  0  0  0
    2.0412   -3.4044    0.0193 C   0  0  0  0  0  0
    2.8908   -4.5050    0.0210 N   0  0  0  0  0  0
    2.4620   -5.8908    0.0196 C   0  0  0  0  0  0
    5.4943   -5.8073    0.0269 H   0  0  0  0  0  0
    7.5442   -2.2007    0.0328 H   0  0  0  0  0  0
    5.4235   -0.8906    0.0280 H   0  0  0  0  0  0
    2.4095   -1.2335    0.0207 H   0  0  0  0  0  0
    0.9650   -3.5319    0.0167 H   0  0  0  0  0  0
    1.3731   -5.9546    0.0170 H   0  0  0  0  0  0
    2.8402   -6.3969    0.9086 H   0  0  0  0  0  0
    2.8444   -6.3964   -0.8677 H   0  0  0  0  0  0
  1  2  2  0  0  0
  1  6  1  0  0  0
  1  7  1  0  0  0
  2  3  1  0  0  0
  2  9  1  0  0  0
  3  4  2  0  0  0
  3 11  1  0  0  0
  4  5  1  0  0  0
  5  6  2  0  0  0
  5 12  1  0  0  0
  6 13  1  0  0  0
  7  8  2  0  0  0
  7 14  1  0  0  0
  8  9  1  0  0  0
  8 15  1  0  0  0
  9 10  1  0  0  0
 10 16  1  0  0  0
 10 17  1  0  0  0
 10 18  1  0  0  0
M  END
> <s_m_entry_name>
Schrodinger_fragment_130

> <i_m_number_of_atoms>
18

> <r_m_molecular_weight>
132.16636

> <s_m_molecular_formula>
C8H8N2

> <r_epik_Ionization_Penalty>
  1.5952

> <r_epik_Ionization_Penalty_Charging>
  0.0000

> <r_epik_Ionization_Penalty_Neutral>
  1.5952

> <r_epik_State_Penalty>
  1.5952

> <i_epik_Tot_Q>
0

> <r_epik_Metal_State_Penalty>
  0.0081

> <b_epik_Metal_Only>
0

> <s_m_entry_id>
4515

> <s_canvas_Unique_SMILES_Stereo>
c1cn(C)c(c12)cncc2

$$$$
Schrodinger_fragment_115
                    3D
 Structure written by MMmdl.
 15 16  0  0  1  0            999 V2000
    2.1732    2.1962    0.0241 C   0  0  0  0  0  0
    2.1887    0.7847    0.0229 N   0  0  0  0  0  0
    3.3408    0.0606    0.0251 C   0  0  0  0  0  0
    4.5475    0.7272    0.0286 C   0  0  0  0  0  0
    4.5863    2.1453    0.0299 C   0  0  0  0  0  0
    3.4180    2.8770    0.0277 C   0  0  0  0  0  0
    0.8549    2.5614    0.0213 C   0  0  0  0  0  0
    0.1380    1.3394    0.0185 C   0  0  0  0  0  0
    0.9098    0.2728    0.0194 N   0  0  0  0  0  0
    3.2451   -1.0203    0.0239 H   0  0  0  0  0  0
    5.4742    0.1570    0.0303 H   0  0  0  0  0  0
    5.5440    2.6623    0.0327 H   0  0  0  0  0  0
    3.4356    3.9632    0.0287 H   0  0  0  0  0  0
    0.4416    3.5625    0.0211 H   0  0  0  0  0  0
   -0.9390    1.2189    0.0158 H   0  0  0  0  0  0
  1  2  1  0  0  0
  1  6  1  0  0  0
  1  7  2  0  0  0
  2  3  1  0  0  0
  2  9  1  0  0  0
  3  4  2  0  0  0
  3 10  1  0  0  0
  4  5  1  0  0  0
  4 11  1  0  0  0
  5  6  2  0  0  0
  5 12  1  0  0  0
  6 13  1  0  0  0
  7  8  1  0  0  0
  7 14  1  0  0  0
  8  9  2  0  0  0
  8 15  1  0  0  0
M  END
> <s_m_entry_name>
Schrodinger_fragment_132

> <i_m_number_of_atoms>
15

> <r_m_molecular_weight>
118.13927

> <s_m_molecular_formula>
C7H6N2

> <r_epik_Ionization_Penalty>
  0.0000

> <r_epik_Ionization_Penalty_Charging>
  0.0000

> <r_epik_Ionization_Penalty_Neutral>
  0.0000

> <r_epik_State_Penalty>
  0.0000

> <i_epik_Tot_Q>
0

> <r_epik_Metal_State_Penalty>
  0.0000

> <b_epik_Metal_Only>
0

> <s_m_entry_id>
4516

> <s_canvas_Unique_SMILES_Stereo>
c1cnn(c12)cccc2

$$$$
Schrodinger_fragment_116
                    3D
 Structure written by MMmdl.
 15 16  0  0  1  0            999 V2000
    4.4833   -2.9607    0.0238 C   0  0  0  0  0  0
    4.5261   -4.3822    0.0227 C   0  0  0  0  0  0
    5.7393   -5.0933    0.0253 C   0  0  0  0  0  0
    6.9549   -4.3820    0.0291 C   0  0  0  0  0  0
    6.9409   -2.9723    0.0303 C   0  0  0  0  0  0
    5.7172   -2.2684    0.0276 C   0  0  0  0  0  0
    3.0890   -2.6245    0.0204 C   0  0  0  0  0  0
    2.3305   -3.6978    0.0175 N   0  0  0  0  0  0
    3.1924   -4.7517    0.0189 N   0  0  0  0  0  0
    5.7379   -6.1752    0.0244 H   0  0  0  0  0  0
    7.8975   -4.9144    0.0312 H   0  0  0  0  0  0
    7.8767   -2.4274    0.0332 H   0  0  0  0  0  0
    5.7178   -1.1867    0.0285 H   0  0  0  0  0  0
    2.6356   -1.6420    0.0200 H   0  0  0  0  0  0
    2.8522   -5.7089    0.0172 H   0  0  0  0  0  0
  1  2  2  0  0  0
  1  6  1  0  0  0
  1  7  1  0  0  0
  2  3  1  0  0  0
  2  9  1  0  0  0
  3  4  2  0  0  0
  3 10  1  0  0  0
  4  5  1  0  0  0
  4 11  1  0  0  0
  5  6  2  0  0  0
  5 12  1  0  0  0
  6 13  1  0  0  0
  7  8  2  0  0  0
  7 14  1  0  0  0
  8  9  1  0  0  0
  9 15  1  0  0  0
M  END
> <s_m_entry_name>
Schrodinger_fragment_133

> <i_m_number_of_atoms>
15

> <r_m_molecular_weight>
118.13927

> <s_m_molecular_formula>
C7H6N2

> <r_epik_Ionization_Penalty>
  0.0000

> <r_epik_Ionization_Penalty_Charging>
  0.0000

> <r_epik_Ionization_Penalty_Neutral>
  0.0000

> <r_epik_State_Penalty>
  0.0117

> <i_epik_Tot_Q>
0

> <r_epik_Metal_State_Penalty>
  0.0117

> <b_epik_Metal_Only>
0

> <s_m_entry_id>
4517

> <s_canvas_Unique_SMILES_Stereo>
c1n[nH]c(c12)cccc2

$$$$
Schrodinger_fragment_116_a
                    3D
 Structure written by MMmdl.
 15 16  0  0  1  0            999 V2000
    4.4874   -2.9746    0.0238 C   0  0  0  0  0  0
    4.4780   -4.3575    0.0226 C   0  0  0  0  0  0
    5.6745   -5.0947    0.0252 C   0  0  0  0  0  0
    6.8970   -4.3846    0.0290 C   0  0  0  0  0  0
    6.9052   -2.9685    0.0302 C   0  0  0  0  0  0
    5.6906   -2.2460    0.0275 C   0  0  0  0  0  0
    3.1642   -2.5595    0.0206 C   0  0  0  0  0  0
    2.4287   -3.7374    0.0177 N   0  0  0  0  0  0
    3.2300   -4.8665    0.0189 N   0  0  0  0  0  0
    5.6614   -6.1752    0.0243 H   0  0  0  0  0  0
    7.8315   -4.9279    0.0310 H   0  0  0  0  0  0
    7.8470   -2.4363    0.0331 H   0  0  0  0  0  0
    5.6875   -1.1648    0.0284 H   0  0  0  0  0  0
    2.6762   -1.5943    0.0201 H   0  0  0  0  0  0
    1.4118   -3.7775    0.0150 H   0  0  0  0  0  0
  1  6  1  0  0  0
  1  2  1  0  0  0
  1  7  2  0  0  0
  2  9  2  0  0  0
  2  3  1  0  0  0
  3 10  1  0  0  0
  3  4  2  0  0  0
  4 11  1  0  0  0
  4  5  1  0  0  0
  5 12  1  0  0  0
  5  6  2  0  0  0
  6 13  1  0  0  0
  7  8  1  0  0  0
  7 14  1  0  0  0
  8 15  1  0  0  0
  8  9  1  0  0  0
M  END
> <s_m_entry_name>
Schrodinger_fragment_133

> <i_m_number_of_atoms>
15

> <r_m_molecular_weight>
118.13927

> <s_m_molecular_formula>
C7H6N2

> <r_epik_Ionization_Penalty>
  0.0000

> <r_epik_Ionization_Penalty_Charging>
  0.0000

> <r_epik_Ionization_Penalty_Neutral>
  0.0000

> <r_epik_State_Penalty>
  2.3291

> <i_epik_Tot_Q>
0

> <r_epik_Metal_State_Penalty>
  2.3290

> <b_epik_Metal_Only>
0

> <s_m_entry_id>
4518

> <s_canvas_Unique_SMILES_Stereo>
c1[nH]nc(c12)cccc2

$$$$
Schrodinger_fragment_117
                    3D
 Structure written by MMmdl.
 18 19  0  0  1  0            999 V2000
    4.4947   -2.9813    0.0227 C   0  0  0  0  0  0
    4.5567   -4.4015    0.0236 C   0  0  0  0  0  0
    5.7811   -5.0944    0.0277 C   0  0  0  0  0  0
    6.9864   -4.3663    0.0309 C   0  0  0  0  0  0
    6.9519   -2.9570    0.0301 C   0  0  0  0  0  0
    5.7183   -2.2707    0.0260 C   0  0  0  0  0  0
    3.0969   -2.6678    0.0184 C   0  0  0  0  0  0
    2.3557   -3.7526    0.0167 N   0  0  0  0  0  0
    3.2270   -4.7990    0.0199 N   0  0  0  0  0  0
    2.7042   -6.1507    0.0191 C   0  0  0  0  0  0
    5.7903   -6.1758    0.0282 H   0  0  0  0  0  0
    7.9365   -4.8852    0.0340 H   0  0  0  0  0  0
    7.8798   -2.3987    0.0326 H   0  0  0  0  0  0
    5.7034   -1.1891    0.0254 H   0  0  0  0  0  0
    2.6273   -1.6935    0.0164 H   0  0  0  0  0  0
    1.6136   -6.1487    0.0157 H   0  0  0  0  0  0
    3.0538   -6.6776    0.9071 H   0  0  0  0  0  0
    3.0593   -6.6787   -0.8661 H   0  0  0  0  0  0
  1  2  2  0  0  0
  1  6  1  0  0  0
  1  7  1  0  0  0
  2  3  1  0  0  0
  2  9  1  0  0  0
  3  4  2  0  0  0
  3 11  1  0  0  0
  4  5  1  0  0  0
  4 12  1  0  0  0
  5  6  2  0  0  0
  5 13  1  0  0  0
  6 14  1  0  0  0
  7  8  2  0  0  0
  7 15  1  0  0  0
  8  9  1  0  0  0
  9 10  1  0  0  0
 10 16  1  0  0  0
 10 17  1  0  0  0
 10 18  1  0  0  0
M  END
> <s_m_entry_name>
Schrodinger_fragment_135

> <i_m_number_of_atoms>
18

> <r_m_molecular_weight>
132.16636

> <s_m_molecular_formula>
C8H8N2

> <r_epik_Ionization_Penalty>
  0.0000

> <r_epik_Ionization_Penalty_Charging>
  0.0000

> <r_epik_Ionization_Penalty_Neutral>
  0.0000

> <r_epik_State_Penalty>
  0.0000

> <i_epik_Tot_Q>
0

> <r_epik_Metal_State_Penalty>
  0.0000

> <b_epik_Metal_Only>
0

> <s_m_entry_id>
4519

> <s_canvas_Unique_SMILES_Stereo>
c1nn(C)c(c12)cccc2

$$$$
Schrodinger_fragment_118
                    3D
 Structure written by MMmdl.
 15 16  0  0  1  0            999 V2000
    2.1707    2.1891    0.0250 C   0  0  0  0  0  0
    2.2614    0.7696    0.0236 C   0  0  0  0  0  0
    3.3939    0.0108    0.0240 N   0  0  0  0  0  0
    4.5446    0.7215    0.0260 C   0  0  0  0  0  0
    4.6006    2.1290    0.0275 C   0  0  0  0  0  0
    3.4041    2.8748    0.0270 C   0  0  0  0  0  0
    0.7782    2.5471    0.0239 C   0  0  0  0  0  0
    0.0673    1.3722    0.0219 C   0  0  0  0  0  0
    0.9633    0.3134    0.0217 N   0  0  0  0  0  0
    5.4597    0.1453    0.0264 H   0  0  0  0  0  0
    5.5615    2.6307    0.0291 H   0  0  0  0  0  0
    3.4257    3.9558    0.0282 H   0  0  0  0  0  0
    0.3780    3.5548    0.0245 H   0  0  0  0  0  0
   -1.0044    1.2018    0.0206 H   0  0  0  0  0  0
    0.6838   -0.6617    0.0204 H   0  0  0  0  0  0
  1  2  2  0  0  0
  1  6  1  0  0  0
  1  7  1  0  0  0
  2  3  1  0  0  0
  2  9  1  0  0  0
  3  4  2  0  0  0
  4  5  1  0  0  0
  4 10  1  0  0  0
  5  6  2  0  0  0
  5 11  1  0  0  0
  6 12  1  0  0  0
  7  8  2  0  0  0
  7 13  1  0  0  0
  8  9  1  0  0  0
  8 14  1  0  0  0
  9 15  1  0  0  0
M  END
> <s_m_entry_name>
Schrodinger_fragment_136

> <i_m_number_of_atoms>
15

> <r_m_molecular_weight>
118.13927

> <s_m_molecular_formula>
C7H6N2

> <r_epik_Ionization_Penalty>
  0.0012

> <r_epik_Ionization_Penalty_Charging>
  0.0000

> <r_epik_Ionization_Penalty_Neutral>
  0.0012

> <r_epik_State_Penalty>
  0.0000

> <i_epik_Tot_Q>
0

> <r_epik_Metal_State_Penalty>
  0.0000

> <b_epik_Metal_Only>
0

> <s_m_entry_id>
4520

> <s_canvas_Unique_SMILES_Stereo>
c1c[nH]c(c12)nccc2

$$$$
Schrodinger_fragment_119
                    3D
 Structure written by MMmdl.
 18 19  0  0  1  0            999 V2000
    4.1636   -2.6095    0.0245 C   0  0  0  0  0  0
    4.2364   -4.0303    0.0240 C   0  0  0  0  0  0
    5.3691   -4.7959    0.0262 N   0  0  0  0  0  0
    6.5241   -4.0954    0.0292 C   0  0  0  0  0  0
    6.5917   -2.6892    0.0300 C   0  0  0  0  0  0
    5.4022   -1.9342    0.0276 C   0  0  0  0  0  0
    2.7801   -2.2359    0.0215 C   0  0  0  0  0  0
    2.0611   -3.4043    0.0193 C   0  0  0  0  0  0
    2.9282   -4.4928    0.0208 N   0  0  0  0  0  0
    2.5200   -5.8852    0.0192 C   0  0  0  0  0  0
    7.4343   -4.6792    0.0310 H   0  0  0  0  0  0
    7.5567   -2.1955    0.0324 H   0  0  0  0  0  0
    5.4328   -0.8533    0.0282 H   0  0  0  0  0  0
    2.3890   -1.2254    0.0211 H   0  0  0  0  0  0
    0.9868   -3.5491    0.0168 H   0  0  0  0  0  0
    1.4328   -5.9673    0.0167 H   0  0  0  0  0  0
    2.9114   -6.3829    0.9070 H   0  0  0  0  0  0
    2.9154   -6.3821   -0.8672 H   0  0  0  0  0  0
  1  2  2  0  0  0
  1  6  1  0  0  0
  1  7  1  0  0  0
  2  3  1  0  0  0
  2  9  1  0  0  0
  3  4  2  0  0  0
  4  5  1  0  0  0
  4 11  1  0  0  0
  5  6  2  0  0  0
  5 12  1  0  0  0
  6 13  1  0  0  0
  7  8  2  0  0  0
  7 14  1  0  0  0
  8  9  1  0  0  0
  8 15  1  0  0  0
  9 10  1  0  0  0
 10 16  1  0  0  0
 10 17  1  0  0  0
 10 18  1  0  0  0
M  END
> <s_m_entry_name>
Schrodinger_fragment_138

> <i_m_number_of_atoms>
18

> <r_m_molecular_weight>
132.16636

> <s_m_molecular_formula>
C8H8N2

> <r_epik_Ionization_Penalty>
  0.0017

> <r_epik_Ionization_Penalty_Charging>
  0.0000

> <r_epik_Ionization_Penalty_Neutral>
  0.0017

> <r_epik_State_Penalty>
  0.0000

> <i_epik_Tot_Q>
0

> <r_epik_Metal_State_Penalty>
  0.0000

> <b_epik_Metal_Only>
0

> <s_m_entry_id>
4521

> <s_canvas_Unique_SMILES_Stereo>
c1cn(C)c(c12)nccc2

$$$$
Schrodinger_fragment_120
                    3D
 Structure written by MMmdl.
 15 16  0  0  1  0            999 V2000
    2.1972    2.1317    0.0250 N   0  0  0  0  0  0
    2.2311    0.7093    0.0235 C   0  0  0  0  0  0
    3.3914    0.0306    0.0240 N   0  0  0  0  0  0
    4.5116    0.7467    0.0260 C   0  0  0  0  0  0
    4.5478    2.1579    0.0276 C   0  0  0  0  0  0
    3.3571    2.8485    0.0270 C   0  0  0  0  0  0
    0.8658    2.5315    0.0240 C   0  0  0  0  0  0
    0.0943    1.4018    0.0219 C   0  0  0  0  0  0
    0.9328    0.2616    0.0216 C   0  0  0  0  0  0
    5.4420    0.1865    0.0264 H   0  0  0  0  0  0
    5.4978    2.6881    0.0292 H   0  0  0  0  0  0
    3.2796    3.9313    0.0281 H   0  0  0  0  0  0
    0.6179    3.5868    0.0249 H   0  0  0  0  0  0
   -0.9897    1.3603    0.0207 H   0  0  0  0  0  0
    0.6130   -0.7732    0.0201 H   0  0  0  0  0  0
  1  2  1  0  0  0
  1  6  1  0  0  0
  1  7  1  0  0  0
  2  3  1  0  0  0
  2  9  2  0  0  0
  3  4  2  0  0  0
  4  5  1  0  0  0
  4 10  1  0  0  0
  5  6  2  0  0  0
  5 11  1  0  0  0
  6 12  1  0  0  0
  7  8  2  0  0  0
  7 13  1  0  0  0
  8  9  1  0  0  0
  8 14  1  0  0  0
  9 15  1  0  0  0
M  END
> <s_m_entry_name>
Schrodinger_fragment_140

> <i_m_number_of_atoms>
15

> <r_m_molecular_weight>
118.13927

> <s_m_molecular_formula>
C7H6N2

> <r_epik_Ionization_Penalty>
  0.0038

> <r_epik_Ionization_Penalty_Charging>
  0.0000

> <r_epik_Ionization_Penalty_Neutral>
  0.0038

> <r_epik_State_Penalty>
  0.0000

> <i_epik_Tot_Q>
0

> <r_epik_Metal_State_Penalty>
  0.0000

> <b_epik_Metal_Only>
0

> <s_m_entry_id>
4522

> <s_canvas_Unique_SMILES_Stereo>
c1ccn(c12)cccn2

$$$$
Schrodinger_fragment_121
                    3D
 Structure written by MMmdl.
 15 16  0  0  1  0            999 V2000
    2.1504    2.1312    0.0236 C   0  0  0  0  0  0
    2.2091    0.7142    0.0239 N   0  0  0  0  0  0
    3.3884    0.0307    0.0262 C   0  0  0  0  0  0
    4.5750    0.7292    0.0285 C   0  0  0  0  0  0
    4.5718    2.1448    0.0284 C   0  0  0  0  0  0
    3.3811    2.8366    0.0260 C   0  0  0  0  0  0
    0.8793    2.5423    0.0211 N   0  0  0  0  0  0
    0.1018    1.3877    0.0196 C   0  0  0  0  0  0
    0.8963    0.2754    0.0213 C   0  0  0  0  0  0
    3.3308   -1.0535    0.0262 H   0  0  0  0  0  0
    5.5190    0.1867    0.0304 H   0  0  0  0  0  0
    5.5124    2.6919    0.0302 H   0  0  0  0  0  0
    3.3650    3.9220    0.0259 H   0  0  0  0  0  0
   -0.9803    1.4449    0.0175 H   0  0  0  0  0  0
    0.6729   -0.7840    0.0209 H   0  0  0  0  0  0
  1  2  1  0  0  0
  1  6  1  0  0  0
  1  7  2  0  0  0
  2  3  1  0  0  0
  2  9  1  0  0  0
  3  4  2  0  0  0
  3 10  1  0  0  0
  4  5  1  0  0  0
  4 11  1  0  0  0
  5  6  2  0  0  0
  5 12  1  0  0  0
  6 13  1  0  0  0
  7  8  1  0  0  0
  8  9  2  0  0  0
  8 14  1  0  0  0
  9 15  1  0  0  0
M  END
> <s_m_entry_name>
Schrodinger_fragment_141

> <i_m_number_of_atoms>
15

> <r_m_molecular_weight>
118.13927

> <s_m_molecular_formula>
C7H6N2

> <r_epik_Ionization_Penalty>
  0.2378

> <r_epik_Ionization_Penalty_Charging>
  0.0000

> <r_epik_Ionization_Penalty_Neutral>
  0.2378

> <r_epik_State_Penalty>
  0.2353

> <i_epik_Tot_Q>
0

> <r_epik_Metal_State_Penalty>
  0.0003

> <b_epik_Metal_Only>
0

> <s_m_entry_id>
4523

> <s_canvas_Unique_SMILES_Stereo>
n1ccn(c12)cccc2

$$$$
Schrodinger_fragment_121_a
                    3D
 Structure written by MMmdl.
 16 17  0  0  1  0            999 V2000
    2.2166    2.1073    0.0238 C   0  0  0  0  0  0
    2.1924    0.7841    0.0238 N   0  0  0  0  0  0
    3.3555    0.0484    0.0262 C   0  0  0  0  0  0
    4.5542    0.7339    0.0285 C   0  0  0  0  0  0
    4.5652    2.1559    0.0284 C   0  0  0  0  0  0
    3.3763    2.8569    0.0260 C   0  0  0  0  0  0
    0.9516    2.5193    0.0212 N   0  3  0  0  0  0
    0.1296    1.3879    0.0197 C   0  0  0  0  0  0
    0.9187    0.2569    0.0213 C   0  0  0  0  0  0
    3.2680   -1.0358    0.0261 H   0  0  0  0  0  0
    5.4937    0.1845    0.0304 H   0  0  0  0  0  0
    5.5105    2.6929    0.0302 H   0  0  0  0  0  0
    3.3314    3.9414    0.0258 H   0  0  0  0  0  0
   -0.9506    1.4991    0.0175 H   0  0  0  0  0  0
    0.6724   -0.8009    0.0209 H   0  0  0  0  0  0
    0.6330    3.4832    0.0205 H   0  0  0  0  0  0
  1  2  1  0  0  0
  1  6  1  0  0  0
  1  7  2  0  0  0
  2  3  1  0  0  0
  2  9  1  0  0  0
  3  4  2  0  0  0
  3 10  1  0  0  0
  4  5  1  0  0  0
  4 11  1  0  0  0
  5  6  2  0  0  0
  5 12  1  0  0  0
  6 13  1  0  0  0
  7  8  1  0  0  0
  7 16  1  0  0  0
  8  9  2  0  0  0
  8 14  1  0  0  0
  9 15  1  0  0  0
M  CHG  1   7   1
M  END
> <s_m_entry_name>
Schrodinger_fragment_141

> <i_m_number_of_atoms>
15

> <r_m_molecular_weight>
118.13927

> <s_m_molecular_formula>
C7H6N2

> <r_epik_Ionization_Penalty>
  0.6625

> <r_epik_Ionization_Penalty_Charging>
  0.6609

> <r_epik_Ionization_Penalty_Neutral>
  0.0016

> <r_epik_State_Penalty>
  0.6609

> <i_epik_Tot_Q>
1

> <r_epik_Metal_State_Penalty>
  4.5187

> <b_epik_Metal_Only>
0

> <s_m_entry_id>
4524

> <s_canvas_Unique_SMILES_Stereo>
[nH+]1ccn(c12)cccc2

$$$$
Schrodinger_fragment_122
                    3D
 Structure written by MMmdl.
 13 14  0  0  1  0            999 V2000
    2.1913    2.1294    0.0237 C   0  0  0  0  0  0
    2.1949    0.7296    0.0250 C   0  0  0  0  0  0
    3.4071    0.0351    0.0265 C   0  0  0  0  0  0
    4.5510    0.7506    0.0268 N   0  0  0  0  0  0
    4.4388    2.0812    0.0255 C   0  0  0  0  0  0
    3.3285    2.8343    0.0240 N   0  0  0  0  0  0
    0.8533    2.6025    0.0223 C   0  0  0  0  0  0
    0.1118    1.4435    0.0227 C   0  0  0  0  0  0
    0.8835    0.2965    0.0243 O   0  0  0  0  0  0
    3.4647   -1.0434    0.0275 H   0  0  0  0  0  0
    5.3703    2.6266    0.0258 H   0  0  0  0  0  0
    0.5518    3.6398    0.0212 H   0  0  0  0  0  0
   -0.9544    1.2611    0.0221 H   0  0  0  0  0  0
  1  2  2  0  0  0
  1  6  1  0  0  0
  1  7  1  0  0  0
  2  3  1  0  0  0
  2  9  1  0  0  0
  3  4  2  0  0  0
  3 10  1  0  0  0
  4  5  1  0  0  0
  5  6  2  0  0  0
  5 11  1  0  0  0
  7  8  2  0  0  0
  7 12  1  0  0  0
  8  9  1  0  0  0
  8 13  1  0  0  0
M  END
> <s_m_entry_name>
Schrodinger_fragment_143

> <i_m_number_of_atoms>
13

> <r_m_molecular_weight>
120.11158

> <s_m_molecular_formula>
C6H4N2O1

> <r_epik_Ionization_Penalty>
  0.0000

> <r_epik_Ionization_Penalty_Charging>
  0.0000

> <r_epik_Ionization_Penalty_Neutral>
  0.0000

> <r_epik_State_Penalty>
  0.0000

> <i_epik_Tot_Q>
0

> <r_epik_Metal_State_Penalty>
  0.0000

> <b_epik_Metal_Only>
0

> <s_m_entry_id>
4525

> <s_canvas_Unique_SMILES_Stereo>
c1coc(c12)cncn2

$$$$
Schrodinger_fragment_123
                    3D
 Structure written by MMmdl.
 13 14  0  0  1  0            999 V2000
    2.1598    2.1269    0.0242 C   0  0  0  0  0  0
    2.2377    0.7387    0.0245 C   0  0  0  0  0  0
    3.3672   -0.0115    0.0253 N   0  0  0  0  0  0
    4.4483    0.7734    0.0259 C   0  0  0  0  0  0
    4.5196    2.1075    0.0258 N   0  0  0  0  0  0
    3.3759    2.8310    0.0250 C   0  0  0  0  0  0
    0.8266    2.6002    0.0233 C   0  0  0  0  0  0
    0.1234    1.4165    0.0230 C   0  0  0  0  0  0
    0.9307    0.2863    0.0236 O   0  0  0  0  0  0
    5.3965    0.2574    0.0267 H   0  0  0  0  0  0
    3.4351    3.9094    0.0249 H   0  0  0  0  0  0
    0.5077    3.6337    0.0229 H   0  0  0  0  0  0
   -0.9359    1.1974    0.0223 H   0  0  0  0  0  0
  1  2  2  0  0  0
  1  6  1  0  0  0
  1  7  1  0  0  0
  2  3  1  0  0  0
  2  9  1  0  0  0
  3  4  2  0  0  0
  4  5  1  0  0  0
  4 10  1  0  0  0
  5  6  2  0  0  0
  6 11  1  0  0  0
  7  8  2  0  0  0
  7 12  1  0  0  0
  8  9  1  0  0  0
  8 13  1  0  0  0
M  END
> <s_m_entry_name>
Schrodinger_fragment_144

> <i_m_number_of_atoms>
13

> <r_m_molecular_weight>
120.11158

> <s_m_molecular_formula>
C6H4N2O1

> <r_epik_Ionization_Penalty>
  0.0000

> <r_epik_Ionization_Penalty_Charging>
  0.0000

> <r_epik_Ionization_Penalty_Neutral>
  0.0000

> <r_epik_State_Penalty>
  0.0000

> <i_epik_Tot_Q>
0

> <r_epik_Metal_State_Penalty>
  0.0000

> <b_epik_Metal_Only>
0

> <s_m_entry_id>
4526

> <s_canvas_Unique_SMILES_Stereo>
c1coc(c12)ncnc2

$$$$
Schrodinger_fragment_124
                    3D
 Structure written by MMmdl.
 14 15  0  0  1  0            999 V2000
    2.1804    2.1692    0.0245 C   0  0  0  0  0  0
    2.2613    0.7561    0.0258 C   0  0  0  0  0  0
    3.3906    0.0033    0.0269 N   0  0  0  0  0  0
    4.4835    0.7664    0.0265 C   0  0  0  0  0  0
    4.5639    2.0976    0.0253 N   0  0  0  0  0  0
    3.4271    2.8319    0.0242 C   0  0  0  0  0  0
    0.7896    2.5394    0.0237 C   0  0  0  0  0  0
    0.0711    1.3691    0.0246 C   0  0  0  0  0  0
    0.9616    0.3052    0.0259 N   0  0  0  0  0  0
    5.4260    0.2381    0.0273 H   0  0  0  0  0  0
    3.5050    3.9098    0.0232 H   0  0  0  0  0  0
    0.3958    3.5501    0.0226 H   0  0  0  0  0  0
   -1.0019    1.2059    0.0244 H   0  0  0  0  0  0
    0.6779   -0.6689    0.0267 H   0  0  0  0  0  0
  1  2  2  0  0  0
  1  6  1  0  0  0
  1  7  1  0  0  0
  2  3  1  0  0  0
  2  9  1  0  0  0
  3  4  2  0  0  0
  4  5  1  0  0  0
  4 10  1  0  0  0
  5  6  2  0  0  0
  6 11  1  0  0  0
  7  8  2  0  0  0
  7 12  1  0  0  0
  8  9  1  0  0  0
  8 13  1  0  0  0
  9 14  1  0  0  0
M  END
> <s_m_entry_name>
Schrodinger_fragment_145

> <i_m_number_of_atoms>
14

> <r_m_molecular_weight>
119.12685

> <s_m_molecular_formula>
C6H5N3

> <r_epik_Ionization_Penalty>
  0.0000

> <r_epik_Ionization_Penalty_Charging>
  0.0000

> <r_epik_Ionization_Penalty_Neutral>
  0.0000

> <r_epik_State_Penalty>
  0.0000

> <i_epik_Tot_Q>
0

> <r_epik_Metal_State_Penalty>
  0.0000

> <b_epik_Metal_Only>
0

> <s_m_entry_id>
4527

> <s_canvas_Unique_SMILES_Stereo>
c1c[nH]c(c12)ncnc2

$$$$
Schrodinger_fragment_125
                    3D
 Structure written by MMmdl.
 17 18  0  0  1  0            999 V2000
    4.1737   -2.6260    0.0243 C   0  0  0  0  0  0
    4.2378   -4.0400    0.0232 C   0  0  0  0  0  0
    5.3661   -4.8009    0.0241 N   0  0  0  0  0  0
    6.4629   -4.0479    0.0261 C   0  0  0  0  0  0
    6.5544   -2.7182    0.0273 N   0  0  0  0  0  0
    5.4249   -1.9746    0.0265 C   0  0  0  0  0  0
    2.7915   -2.2418    0.0227 C   0  0  0  0  0  0
    2.0659   -3.4062    0.0208 C   0  0  0  0  0  0
    2.9285   -4.4984    0.0211 N   0  0  0  0  0  0
    2.5171   -5.8894    0.0194 C   0  0  0  0  0  0
    7.4010   -4.5839    0.0269 H   0  0  0  0  0  0
    5.5122   -0.8974    0.0274 H   0  0  0  0  0  0
    2.4058   -1.2288    0.0231 H   0  0  0  0  0  0
    0.9907   -3.5451    0.0193 H   0  0  0  0  0  0
    1.4298   -5.9688    0.0179 H   0  0  0  0  0  0
    2.9086   -6.3882    0.9065 H   0  0  0  0  0  0
    2.9108   -6.3867   -0.8675 H   0  0  0  0  0  0
  1  2  2  0  0  0
  1  6  1  0  0  0
  1  7  1  0  0  0
  2  3  1  0  0  0
  2  9  1  0  0  0
  3  4  2  0  0  0
  4  5  1  0  0  0
  4 11  1  0  0  0
  5  6  2  0  0  0
  6 12  1  0  0  0
  7  8  2  0  0  0
  7 13  1  0  0  0
  8  9  1  0  0  0
  8 14  1  0  0  0
  9 10  1  0  0  0
 10 15  1  0  0  0
 10 16  1  0  0  0
 10 17  1  0  0  0
M  END
> <s_m_entry_name>
Schrodinger_fragment_146

> <i_m_number_of_atoms>
17

> <r_m_molecular_weight>
133.15394

> <s_m_molecular_formula>
C7H7N3

> <r_epik_Ionization_Penalty>
  0.0000

> <r_epik_Ionization_Penalty_Charging>
  0.0000

> <r_epik_Ionization_Penalty_Neutral>
  0.0000

> <r_epik_State_Penalty>
  0.0000

> <i_epik_Tot_Q>
0

> <r_epik_Metal_State_Penalty>
  0.0000

> <b_epik_Metal_Only>
0

> <s_m_entry_id>
4528

> <s_canvas_Unique_SMILES_Stereo>
c1cn(C)c(c12)ncnc2

$$$$
Schrodinger_fragment_126
                    3D
 Structure written by MMmdl.
 14 15  0  0  1  0            999 V2000
    2.2229    2.1148    0.0239 C   0  0  0  0  0  0
    2.2274    0.6980    0.0261 C   0  0  0  0  0  0
    3.4598    0.0341    0.0277 C   0  0  0  0  0  0
    4.5908    0.7659    0.0272 N   0  0  0  0  0  0
    4.4678    2.0945    0.0251 C   0  0  0  0  0  0
    3.3506    2.8297    0.0234 N   0  0  0  0  0  0
    0.8513    2.5361    0.0226 C   0  0  0  0  0  0
    0.0715    1.4052    0.0239 C   0  0  0  0  0  0
    0.9040    0.2986    0.0260 N   0  0  0  0  0  0
    3.5377   -1.0438    0.0294 H   0  0  0  0  0  0
    5.3941    2.6508    0.0247 H   0  0  0  0  0  0
    0.5130    3.5643    0.0208 H   0  0  0  0  0  0
   -1.0079    1.2967    0.0235 H   0  0  0  0  0  0
    0.5548   -0.6577    0.0273 H   0  0  0  0  0  0
  1  2  2  0  0  0
  1  6  1  0  0  0
  1  7  1  0  0  0
  2  3  1  0  0  0
  2  9  1  0  0  0
  3  4  2  0  0  0
  3 10  1  0  0  0
  4  5  1  0  0  0
  5  6  2  0  0  0
  5 11  1  0  0  0
  7  8  2  0  0  0
  7 12  1  0  0  0
  8  9  1  0  0  0
  8 13  1  0  0  0
  9 14  1  0  0  0
M  END
> <s_m_entry_name>
Schrodinger_fragment_147

> <i_m_number_of_atoms>
14

> <r_m_molecular_weight>
119.12685

> <s_m_molecular_formula>
C6H5N3

> <r_epik_Ionization_Penalty>
  0.0000

> <r_epik_Ionization_Penalty_Charging>
  0.0000

> <r_epik_Ionization_Penalty_Neutral>
  0.0000

> <r_epik_State_Penalty>
  0.0000

> <i_epik_Tot_Q>
0

> <r_epik_Metal_State_Penalty>
  0.0000

> <b_epik_Metal_Only>
0

> <s_m_entry_id>
4529

> <s_canvas_Unique_SMILES_Stereo>
c1c[nH]c(c12)cncn2

$$$$
Schrodinger_fragment_127
                    3D
 Structure written by MMmdl.
 17 18  0  0  1  0            999 V2000
    4.2240   -2.6820    0.0240 C   0  0  0  0  0  0
    4.2269   -4.0987    0.0232 C   0  0  0  0  0  0
    5.4643   -4.7543    0.0242 C   0  0  0  0  0  0
    6.5962   -4.0220    0.0259 N   0  0  0  0  0  0
    6.4704   -2.6941    0.0265 C   0  0  0  0  0  0
    5.3508   -1.9629    0.0256 N   0  0  0  0  0  0
    2.8574   -2.2608    0.0227 C   0  0  0  0  0  0
    2.0848   -3.3950    0.0212 C   0  0  0  0  0  0
    2.9048   -4.5172    0.0215 N   0  0  0  0  0  0
    2.4447   -5.8929    0.0202 C   0  0  0  0  0  0
    5.5438   -5.8319    0.0237 H   0  0  0  0  0  0
    7.3952   -2.1352    0.0278 H   0  0  0  0  0  0
    2.5157   -1.2347    0.0229 H   0  0  0  0  0  0
    1.0055   -3.4934    0.0200 H   0  0  0  0  0  0
    1.3545   -5.9317    0.0190 H   0  0  0  0  0  0
    2.8116   -6.4082    0.9086 H   0  0  0  0  0  0
    2.8136   -6.4072   -0.8679 H   0  0  0  0  0  0
  1  2  2  0  0  0
  1  6  1  0  0  0
  1  7  1  0  0  0
  2  3  1  0  0  0
  2  9  1  0  0  0
  3  4  2  0  0  0
  3 11  1  0  0  0
  4  5  1  0  0  0
  5  6  2  0  0  0
  5 12  1  0  0  0
  7  8  2  0  0  0
  7 13  1  0  0  0
  8  9  1  0  0  0
  8 14  1  0  0  0
  9 10  1  0  0  0
 10 15  1  0  0  0
 10 16  1  0  0  0
 10 17  1  0  0  0
M  END
> <s_m_entry_name>
Schrodinger_fragment_148

> <i_m_number_of_atoms>
17

> <r_m_molecular_weight>
133.15394

> <s_m_molecular_formula>
C7H7N3

> <r_epik_Ionization_Penalty>
  0.0000

> <r_epik_Ionization_Penalty_Charging>
  0.0000

> <r_epik_Ionization_Penalty_Neutral>
  0.0000

> <r_epik_State_Penalty>
  0.0000

> <i_epik_Tot_Q>
0

> <r_epik_Metal_State_Penalty>
  0.0000

> <b_epik_Metal_Only>
0

> <s_m_entry_id>
4530

> <s_canvas_Unique_SMILES_Stereo>
c1cn(C)c(c12)cncn2

$$$$
Schrodinger_fragment_128
                    3D
 Structure written by MMmdl.
 14 15  0  0  1  0            999 V2000
    2.1882    2.1764    0.0243 C   0  0  0  0  0  0
    2.2798    0.7637    0.0246 C   0  0  0  0  0  0
    3.4140    0.0064    0.0263 N   0  0  0  0  0  0
    4.5609    0.7241    0.0278 C   0  0  0  0  0  0
    4.6109    2.1317    0.0278 C   0  0  0  0  0  0
    3.4131    2.8740    0.0260 C   0  0  0  0  0  0
    0.7842    2.4708    0.0223 C   0  0  0  0  0  0
    0.0628    1.3713    0.0213 N   0  0  0  0  0  0
    0.9631    0.3472    0.0227 N   0  0  0  0  0  0
    5.4786    0.1528    0.0292 H   0  0  0  0  0  0
    5.5702    2.6354    0.0291 H   0  0  0  0  0  0
    3.4278    3.9552    0.0260 H   0  0  0  0  0  0
    0.2977    3.4377    0.0215 H   0  0  0  0  0  0
    0.6657   -0.6224    0.0224 H   0  0  0  0  0  0
  1  2  2  0  0  0
  1  6  1  0  0  0
  1  7  1  0  0  0
  2  3  1  0  0  0
  2  9  1  0  0  0
  3  4  2  0  0  0
  4  5  1  0  0  0
  4 10  1  0  0  0
  5  6  2  0  0  0
  5 11  1  0  0  0
  6 12  1  0  0  0
  7  8  2  0  0  0
  7 13  1  0  0  0
  8  9  1  0  0  0
  9 14  1  0  0  0
M  END
> <s_m_entry_name>
Schrodinger_fragment_149

> <i_m_number_of_atoms>
14

> <r_m_molecular_weight>
119.12685

> <s_m_molecular_formula>
C6H5N3

> <r_epik_Ionization_Penalty>
  0.0000

> <r_epik_Ionization_Penalty_Charging>
  0.0000

> <r_epik_Ionization_Penalty_Neutral>
  0.0000

> <r_epik_State_Penalty>
  0.0298

> <i_epik_Tot_Q>
0

> <r_epik_Metal_State_Penalty>
  0.0298

> <b_epik_Metal_Only>
0

> <s_m_entry_id>
4531

> <s_canvas_Unique_SMILES_Stereo>
c1n[nH]c(c12)nccc2

$$$$
Schrodinger_fragment_128_a
                    3D
 Structure written by MMmdl.
 14 15  0  0  1  0            999 V2000
    2.1926    2.1392    0.0243 C   0  0  0  0  0  0
    2.2028    0.7523    0.0245 C   0  0  0  0  0  0
    3.3476    0.0452    0.0262 N   0  0  0  0  0  0
    4.5149    0.7312    0.0278 C   0  0  0  0  0  0
    4.5862    2.1380    0.0278 C   0  0  0  0  0  0
    3.3880    2.8748    0.0260 C   0  0  0  0  0  0
    0.8770    2.5724    0.0224 C   0  0  0  0  0  0
    0.1371    1.4051    0.0214 N   0  0  0  0  0  0
    0.9374    0.2783    0.0227 N   0  0  0  0  0  0
    5.4182    0.1392    0.0291 H   0  0  0  0  0  0
    5.5446    2.6387    0.0291 H   0  0  0  0  0  0
    3.3884    3.9551    0.0259 H   0  0  0  0  0  0
    0.3985    3.5425    0.0216 H   0  0  0  0  0  0
   -0.8794    1.3649    0.0200 H   0  0  0  0  0  0
  1  6  1  0  0  0
  1  7  2  0  0  0
  1  2  1  0  0  0
  2  9  2  0  0  0
  2  3  1  0  0  0
  3  4  2  0  0  0
  4 10  1  0  0  0
  4  5  1  0  0  0
  5 11  1  0  0  0
  5  6  2  0  0  0
  6 12  1  0  0  0
  7 13  1  0  0  0
  7  8  1  0  0  0
  8 14  1  0  0  0
  8  9  1  0  0  0
M  END
> <s_m_entry_name>
Schrodinger_fragment_149

> <i_m_number_of_atoms>
14

> <r_m_molecular_weight>
119.12685

> <s_m_molecular_formula>
C6H5N3

> <r_epik_Ionization_Penalty>
  0.0000

> <r_epik_Ionization_Penalty_Charging>
  0.0000

> <r_epik_Ionization_Penalty_Neutral>
  0.0000

> <r_epik_State_Penalty>
  1.7855

> <i_epik_Tot_Q>
0

> <r_epik_Metal_State_Penalty>
  1.7855

> <b_epik_Metal_Only>
0

> <s_m_entry_id>
4532

> <s_canvas_Unique_SMILES_Stereo>
c1[nH]nc(c12)nccc2

$$$$
Schrodinger_fragment_129
                    3D
 Structure written by MMmdl.
 17 18  0  0  1  0            999 V2000
    4.1928   -2.6379    0.0219 C   0  0  0  0  0  0
    4.2896   -4.0500    0.0231 C   0  0  0  0  0  0
    5.4305   -4.8013    0.0281 N   0  0  0  0  0  0
    6.5720   -4.0777    0.0323 C   0  0  0  0  0  0
    6.6145   -2.6701    0.0317 C   0  0  0  0  0  0
    5.4135   -1.9340    0.0264 C   0  0  0  0  0  0
    2.7893   -2.3512    0.0161 C   0  0  0  0  0  0
    2.0731   -3.4531    0.0139 N   0  0  0  0  0  0
    2.9692   -4.4809    0.0181 N   0  0  0  0  0  0
    2.4764   -5.8443    0.0168 C   0  0  0  0  0  0
    7.4928   -4.6440    0.0363 H   0  0  0  0  0  0
    7.5713   -2.1616    0.0352 H   0  0  0  0  0  0
    5.4229   -0.8527    0.0258 H   0  0  0  0  0  0
    2.2976   -1.3875    0.0136 H   0  0  0  0  0  0
    1.3862   -5.8671    0.0127 H   0  0  0  0  0  0
    2.8393   -6.3625    0.9046 H   0  0  0  0  0  0
    2.8461   -6.3633   -0.8677 H   0  0  0  0  0  0
  1  2  2  0  0  0
  1  6  1  0  0  0
  1  7  1  0  0  0
  2  3  1  0  0  0
  2  9  1  0  0  0
  3  4  2  0  0  0
  4  5  1  0  0  0
  4 11  1  0  0  0
  5  6  2  0  0  0
  5 12  1  0  0  0
  6 13  1  0  0  0
  7  8  2  0  0  0
  7 14  1  0  0  0
  8  9  1  0  0  0
  9 10  1  0  0  0
 10 15  1  0  0  0
 10 16  1  0  0  0
 10 17  1  0  0  0
M  END
> <s_m_entry_name>
Schrodinger_fragment_153

> <i_m_number_of_atoms>
17

> <r_m_molecular_weight>
133.15394

> <s_m_molecular_formula>
C7H7N3

> <r_epik_Ionization_Penalty>
  0.0000

> <r_epik_Ionization_Penalty_Charging>
  0.0000

> <r_epik_Ionization_Penalty_Neutral>
  0.0000

> <r_epik_State_Penalty>
  0.0000

> <i_epik_Tot_Q>
0

> <r_epik_Metal_State_Penalty>
  0.0000

> <b_epik_Metal_Only>
0

> <s_m_entry_id>
4533

> <s_canvas_Unique_SMILES_Stereo>
c1nn(C)c(c12)nccc2

$$$$
Schrodinger_fragment_130
                    3D
 Structure written by MMmdl.
 14 15  0  0  1  0            999 V2000
    2.1979    2.0783    0.0237 N   0  0  0  0  0  0
    2.2530    0.6658    0.0260 C   0  0  0  0  0  0
    3.4197   -0.0009    0.0283 N   0  0  0  0  0  0
    4.5276    0.7371    0.0283 C   0  0  0  0  0  0
    4.5395    2.1516    0.0260 C   0  0  0  0  0  0
    3.3368    2.8249    0.0237 C   0  0  0  0  0  0
    0.9015    2.5405    0.0216 N   0  0  0  0  0  0
    0.1774    1.4414    0.0226 C   0  0  0  0  0  0
    0.9499    0.2538    0.0253 C   0  0  0  0  0  0
    5.4687    0.1938    0.0301 H   0  0  0  0  0  0
    5.4799    2.6990    0.0261 H   0  0  0  0  0  0
    3.2332    3.9050    0.0218 H   0  0  0  0  0  0
   -0.9039    1.5136    0.0213 H   0  0  0  0  0  0
    0.5832   -0.7641    0.0265 H   0  0  0  0  0  0
  1  2  1  0  0  0
  1  6  1  0  0  0
  1  7  1  0  0  0
  2  3  1  0  0  0
  2  9  2  0  0  0
  3  4  2  0  0  0
  4  5  1  0  0  0
  4 10  1  0  0  0
  5  6  2  0  0  0
  5 11  1  0  0  0
  6 12  1  0  0  0
  7  8  2  0  0  0
  8  9  1  0  0  0
  8 13  1  0  0  0
  9 14  1  0  0  0
M  END
> <s_m_entry_name>
Schrodinger_fragment_155

> <i_m_number_of_atoms>
14

> <r_m_molecular_weight>
119.12685

> <s_m_molecular_formula>
C6H5N3

> <r_epik_Ionization_Penalty>
  0.0000

> <r_epik_Ionization_Penalty_Charging>
  0.0000

> <r_epik_Ionization_Penalty_Neutral>
  0.0000

> <r_epik_State_Penalty>
  0.0000

> <i_epik_Tot_Q>
0

> <r_epik_Metal_State_Penalty>
  0.0000

> <b_epik_Metal_Only>
0

> <s_m_entry_id>
4534

> <s_canvas_Unique_SMILES_Stereo>
c1cnn(c12)cccn2

$$$$
Schrodinger_fragment_131
                    3D
 Structure written by MMmdl.
 15 16  0  0  1  0            999 V2000
    2.1395    2.0997    0.0232 C   0  0  0  0  0  0
    2.2041    0.6715    0.0258 C   0  0  0  0  0  0
    3.4396   -0.0015    0.0282 C   0  0  0  0  0  0
    4.6180    0.7723    0.0278 C   0  0  0  0  0  0
    4.5346    2.1233    0.0253 N   0  3  0  0  0  0
    3.3659    2.8089    0.0230 C   0  0  0  0  0  0
    0.8208    2.5466    0.0212 N   0  0  0  0  0  0
    0.1432    1.3961    0.0227 C   0  0  0  0  0  0
    0.8775    0.2729    0.0254 N   0  0  0  0  0  0
    3.4908   -1.0810    0.0302 H   0  0  0  0  0  0
    5.6162    0.3542    0.0295 H   0  0  0  0  0  0
    3.4394    3.8858    0.0211 H   0  0  0  0  0  0
   -0.9378    1.3662    0.0217 H   0  0  0  0  0  0
    5.4031    2.6607    0.0250 H   0  0  0  0  0  0
    0.4948   -0.6631    0.0267 H   0  0  0  0  0  0
  1  7  1  0  0  0
  1  2  2  0  0  0
  1  6  1  0  0  0
  2  3  1  0  0  0
  2  9  1  0  0  0
  3  4  2  0  0  0
  3 10  1  0  0  0
  4 11  1  0  0  0
  4  5  1  0  0  0
  5  6  2  0  0  0
  5 14  1  0  0  0
  6 12  1  0  0  0
  7  8  2  0  0  0
  8  9  1  0  0  0
  8 13  1  0  0  0
  9 15  1  0  0  0
M  CHG  1   5   1
M  END
> <s_m_entry_name>
Schrodinger_fragment_156

> <i_m_number_of_atoms>
14

> <r_m_molecular_weight>
119.12685

> <s_m_molecular_formula>
C6H5N3

> <r_epik_Ionization_Penalty>
  7.9597

> <r_epik_Ionization_Penalty_Charging>
  7.9597

> <r_epik_Ionization_Penalty_Neutral>
  0.0000

> <r_epik_State_Penalty>
  0.0033

> <i_epik_Tot_Q>
1

> <r_epik_Metal_State_Penalty>
  7.9605

> <b_epik_Metal_Only>
0

> <s_m_entry_id>
4535

> <s_canvas_Unique_SMILES_Stereo>
n1c[nH]c(c12)cc[nH+]c2

$$$$
Schrodinger_fragment_131_a
                    3D
 Structure written by MMmdl.
 14 15  0  0  1  0            999 V2000
    2.1499    2.1216    0.0231 C   0  0  0  0  0  0
    2.1561    0.6972    0.0257 C   0  0  0  0  0  0
    3.3984    0.0202    0.0281 C   0  0  0  0  0  0
    4.5752    0.7919    0.0277 C   0  0  0  0  0  0
    4.5606    2.1453    0.0252 N   0  0  0  0  0  0
    3.3865    2.8266    0.0229 C   0  0  0  0  0  0
    0.8810    2.5249    0.0213 N   0  0  0  0  0  0
    0.1505    1.3956    0.0227 C   0  0  0  0  0  0
    0.8925    0.2740    0.0254 N   0  0  0  0  0  0
    3.4424   -1.0591    0.0301 H   0  0  0  0  0  0
    5.5428    0.3068    0.0295 H   0  0  0  0  0  0
    3.4163    3.9075    0.0210 H   0  0  0  0  0  0
   -0.9347    1.3900    0.0217 H   0  0  0  0  0  0
    5.4358    2.6573    0.0251 H   0  0  0  0  0  0
  1  7  1  0  0  0
  1  2  1  0  0  0
  1  6  2  0  0  0
  2  3  1  0  0  0
  2  9  2  0  0  0
  3  4  2  0  0  0
  3 10  1  0  0  0
  4 11  1  0  0  0
  4  5  1  0  0  0
  5  6  1  0  0  0
  5 14  1  0  0  0
  6 12  1  0  0  0
  7  8  2  0  0  0
  8  9  1  0  0  0
  8 13  1  0  0  0
M  END
> <s_m_entry_name>
Schrodinger_fragment_156

> <i_m_number_of_atoms>
14

> <r_m_molecular_weight>
119.12685

> <s_m_molecular_formula>
C6H5N3

> <r_epik_Ionization_Penalty>
 14.1708

> <r_epik_Ionization_Penalty_Charging>
  0.0000

> <r_epik_Ionization_Penalty_Neutral>
 14.1708

> <r_epik_State_Penalty>
  6.1849

> <i_epik_Tot_Q>
0

> <r_epik_Metal_State_Penalty>
 10.0521

> <b_epik_Metal_Only>
1

> <s_m_entry_id>
4536

> <s_canvas_Unique_SMILES_Stereo>
n1cnc(-c12)c[nH]cc2

$$$$
Schrodinger_fragment_131_b
                    3D
 Structure written by MMmdl.
 14 15  0  0  1  0            999 V2000
    2.1413    2.0906    0.0232 C   0  0  0  0  0  0
    2.1985    0.6666    0.0258 C   0  0  0  0  0  0
    3.4314    0.0028    0.0281 C   0  0  0  0  0  0
    4.5924    0.7912    0.0277 C   0  0  0  0  0  0
    4.5639    2.1429    0.0252 N   0  0  0  0  0  0
    3.3737    2.7987    0.0230 C   0  0  0  0  0  0
    0.8238    2.5378    0.0212 N   0  0  0  0  0  0
    0.1398    1.3909    0.0227 C   0  0  0  0  0  0
    0.8720    0.2668    0.0254 N   0  0  0  0  0  0
    3.4973   -1.0767    0.0302 H   0  0  0  0  0  0
    5.5689    0.3294    0.0295 H   0  0  0  0  0  0
    3.4026    3.8784    0.0210 H   0  0  0  0  0  0
   -0.9414    1.3644    0.0217 H   0  0  0  0  0  0
    0.4849   -0.6687    0.0267 H   0  0  0  0  0  0
  1  7  1  0  0  0
  1  2  2  0  0  0
  1  6  1  0  0  0
  2  3  1  0  0  0
  2  9  1  0  0  0
  3  4  2  0  0  0
  3 10  1  0  0  0
  4 11  1  0  0  0
  4  5  1  0  0  0
  5  6  2  0  0  0
  6 12  1  0  0  0
  7  8  2  0  0  0
  8  9  1  0  0  0
  8 13  1  0  0  0
  9 14  1  0  0  0
M  END
> <s_m_entry_name>
Schrodinger_fragment_156

> <i_m_number_of_atoms>
14

> <r_m_molecular_weight>
119.12685

> <s_m_molecular_formula>
C6H5N3

> <r_epik_Ionization_Penalty>
  0.0008

> <r_epik_Ionization_Penalty_Charging>
  0.0000

> <r_epik_Ionization_Penalty_Neutral>
  0.0008

> <r_epik_State_Penalty>
  0.0000

> <i_epik_Tot_Q>
0

> <r_epik_Metal_State_Penalty>
  0.0000

> <b_epik_Metal_Only>
1

> <s_m_entry_id>
4537

> <s_canvas_Unique_SMILES_Stereo>
n1c[nH]c(c12)ccnc2

$$$$
Schrodinger_fragment_132
                    3D
 Structure written by MMmdl.
 14 15  0  0  1  0            999 V2000
    2.2092    2.1503    0.0238 C   0  0  0  0  0  0
    2.1622    0.7314    0.0242 C   0  0  0  0  0  0
    3.3843    0.0467    0.0260 C   0  0  0  0  0  0
    4.5789    0.7854    0.0273 C   0  0  0  0  0  0
    3.4434    2.8220    0.0252 C   0  0  0  0  0  0
    0.8764    2.5317    0.0220 N   0  0  0  0  0  0
    0.1550    1.3993    0.0214 C   0  0  0  0  0  0
    0.8548    0.2611    0.0227 N   0  0  0  0  0  0
    3.4043   -1.0341    0.0264 H   0  0  0  0  0  0
    5.5347    0.2797    0.0287 H   0  0  0  0  0  0
    3.4950    3.9016    0.0249 H   0  0  0  0  0  0
   -0.9283    1.4119    0.0200 H   0  0  0  0  0  0
    4.6100    2.1373    0.0269 N   0  0  0  0  0  0
    0.4747    3.4649    0.0211 H   0  0  0  0  0  0
  1  6  1  0  0  0
  1  2  2  0  0  0
  1  5  1  0  0  0
  2  3  1  0  0  0
  2  8  1  0  0  0
  3  4  2  0  0  0
  3  9  1  0  0  0
  4 10  1  0  0  0
  4 13  1  0  0  0
  5 11  1  0  0  0
  5 13  2  0  0  0
  6  7  1  0  0  0
  6 14  1  0  0  0
  7  8  2  0  0  0
  7 12  1  0  0  0
M  END
> <s_m_entry_name>
Schrodinger_fragment_159

> <i_m_number_of_atoms>
15

> <r_m_molecular_weight>
120.13482

> <s_m_molecular_formula>
C6H6N3

> <r_epik_Ionization_Penalty>
  0.0030

> <r_epik_Ionization_Penalty_Charging>
  0.0000

> <r_epik_Ionization_Penalty_Neutral>
  0.0030

> <r_epik_State_Penalty>
  0.0204

> <i_epik_Tot_Q>
0

> <r_epik_Metal_State_Penalty>
  0.0204

> <b_epik_Metal_Only>
0

> <s_m_entry_id>
4538

> <s_canvas_Unique_SMILES_Stereo>
n1c[nH]c(c12)cncc2

$$$$
Schrodinger_fragment_133
                    3D
 Structure written by MMmdl.
 17 18  0  0  1  0            999 V2000
    4.1499   -2.7059    0.0224 C   0  0  0  0  0  0
    4.2096   -4.1291    0.0233 C   0  0  0  0  0  0
    5.4451   -4.7890    0.0270 C   0  0  0  0  0  0
    6.6033   -3.9982    0.0297 C   0  0  0  0  0  0
    6.5711   -2.6469    0.0288 N   0  0  0  0  0  0
    5.3795   -1.9947    0.0253 C   0  0  0  0  0  0
    2.8340   -2.2636    0.0186 N   0  0  0  0  0  0
    2.1601   -3.4157    0.0174 C   0  0  0  0  0  0
    2.8865   -4.5501    0.0200 N   0  0  0  0  0  0
    2.3955   -5.9121    0.0194 C   0  0  0  0  0  0
    5.5108   -5.8680    0.0277 H   0  0  0  0  0  0
    7.5809   -4.4575    0.0325 H   0  0  0  0  0  0
    5.4052   -0.9149    0.0248 H   0  0  0  0  0  0
    1.0790   -3.4379    0.0145 H   0  0  0  0  0  0
    1.3053   -5.9230    0.0165 H   0  0  0  0  0  0
    2.7537   -6.4310    0.9085 H   0  0  0  0  0  0
    2.7584   -6.4319   -0.8673 H   0  0  0  0  0  0
  1  2  2  0  0  0
  1  6  1  0  0  0
  1  7  1  0  0  0
  2  3  1  0  0  0
  2  9  1  0  0  0
  3  4  2  0  0  0
  3 11  1  0  0  0
  4  5  1  0  0  0
  4 12  1  0  0  0
  5  6  2  0  0  0
  6 13  1  0  0  0
  7  8  2  0  0  0
  8  9  1  0  0  0
  8 14  1  0  0  0
  9 10  1  0  0  0
 10 15  1  0  0  0
 10 16  1  0  0  0
 10 17  1  0  0  0
M  END
> <s_m_entry_name>
Schrodinger_fragment_163

> <i_m_number_of_atoms>
17

> <r_m_molecular_weight>
133.15394

> <s_m_molecular_formula>
C7H7N3

> <r_epik_Ionization_Penalty>
  0.0015

> <r_epik_Ionization_Penalty_Charging>
  0.0000

> <r_epik_Ionization_Penalty_Neutral>
  0.0015

> <r_epik_State_Penalty>
  0.0000

> <i_epik_Tot_Q>
0

> <r_epik_Metal_State_Penalty>
  0.0000

> <b_epik_Metal_Only>
0

> <s_m_entry_id>
4539

> <s_canvas_Unique_SMILES_Stereo>
Cn1cnc(c12)cncc2

$$$$
Schrodinger_fragment_134
                    3D
 Structure written by MMmdl.
 18 19  0  0  1  0            999 V2000
    4.2056   -2.6973    0.0253 C   0  0  0  0  0  0
    4.2116   -4.0918    0.0236 C   0  0  0  0  0  0
    5.4021   -4.8089    0.0249 C   0  0  0  0  0  0
    6.5800   -4.0314    0.0279 C   0  0  0  0  0  0
    5.4191   -2.0249    0.0283 C   0  0  0  0  0  0
    2.8669   -2.3027    0.0234 N   0  3  0  0  0  0
    2.0660   -3.3772    0.0207 C   0  0  0  0  0  0
    2.8665   -4.4529    0.0208 N   0  0  0  0  0  0
    2.4803   -5.8669    0.0184 C   0  0  0  0  0  0
    5.4402   -5.8876    0.0236 H   0  0  0  0  0  0
    7.5431   -4.5216    0.0290 H   0  0  0  0  0  0
    5.4617   -0.9457    0.0297 H   0  0  0  0  0  0
    0.9869   -3.3640    0.0188 H   0  0  0  0  0  0
    1.3931   -5.9545    0.0163 H   0  0  0  0  0  0
    2.8784   -6.3536    0.9099 H   0  0  0  0  0  0
    2.8816   -6.3514   -0.8729 H   0  0  0  0  0  0
    6.6059   -2.6752    0.0296 N   0  0  0  0  0  0
    2.5228   -1.3499    0.0240 H   0  0  0  0  0  0
  1  2  2  0  0  0
  1  5  1  0  0  0
  1  6  1  0  0  0
  2  3  1  0  0  0
  2  8  1  0  0  0
  3  4  2  0  0  0
  3 10  1  0  0  0
  4 11  1  0  0  0
  4 17  1  0  0  0
  5 12  1  0  0  0
  5 17  2  0  0  0
  6  7  2  0  0  0
  6 18  1  0  0  0
  7  8  1  0  0  0
  7 13  1  0  0  0
  8  9  1  0  0  0
  9 14  1  0  0  0
  9 15  1  0  0  0
  9 16  1  0  0  0
M  CHG  1   6   1
M  END
> <s_m_entry_name>
Schrodinger_fragment_164

> <i_m_number_of_atoms>
18

> <r_m_molecular_weight>
134.16191

> <s_m_molecular_formula>
C7H8N3

> <r_epik_Ionization_Penalty>
  0.4315

> <r_epik_Ionization_Penalty_Charging>
  0.4315

> <r_epik_Ionization_Penalty_Neutral>
  0.0000

> <r_epik_State_Penalty>
  0.4315

> <i_epik_Tot_Q>
1

> <r_epik_Metal_State_Penalty>
  0.6645

> <b_epik_Metal_Only>
0

> <s_m_entry_id>
4540

> <s_canvas_Unique_SMILES_Stereo>
Cn1c[nH+]c(c12)cncc2

$$$$
Schrodinger_fragment_135
                    3D
 Structure written by MMmdl.
 17 18  0  0  1  0            999 V2000
    4.1425   -2.6891    0.0225 C   0  0  0  0  0  0
    4.2232   -4.1064    0.0234 C   0  0  0  0  0  0
    5.4776   -4.7405    0.0271 C   0  0  0  0  0  0
    6.6279   -4.0266    0.0298 N   0  0  0  0  0  0
    6.5613   -2.6763    0.0289 C   0  0  0  0  0  0
    5.3470   -1.9707    0.0253 C   0  0  0  0  0  0
    2.8280   -2.2498    0.0187 N   0  0  0  0  0  0
    2.1645   -3.4091    0.0175 C   0  0  0  0  0  0
    2.9019   -4.5394    0.0201 N   0  0  0  0  0  0
    2.4171   -5.9067    0.0195 C   0  0  0  0  0  0
    5.5556   -5.8183    0.0278 H   0  0  0  0  0  0
    7.5033   -2.1453    0.0312 H   0  0  0  0  0  0
    5.3380   -0.8896    0.0248 H   0  0  0  0  0  0
    1.0823   -3.4401    0.0147 H   0  0  0  0  0  0
    1.3262   -5.9249    0.0166 H   0  0  0  0  0  0
    2.7742   -6.4273    0.9088 H   0  0  0  0  0  0
    2.7789   -6.4281   -0.8675 H   0  0  0  0  0  0
  1  2  2  0  0  0
  1  6  1  0  0  0
  1  7  1  0  0  0
  2  3  1  0  0  0
  2  9  1  0  0  0
  3  4  2  0  0  0
  3 11  1  0  0  0
  4  5  1  0  0  0
  5  6  2  0  0  0
  5 12  1  0  0  0
  6 13  1  0  0  0
  7  8  2  0  0  0
  8  9  1  0  0  0
  8 14  1  0  0  0
  9 10  1  0  0  0
 10 15  1  0  0  0
 10 16  1  0  0  0
 10 17  1  0  0  0
M  END
> <s_m_entry_name>
Schrodinger_fragment_169

> <i_m_number_of_atoms>
17

> <r_m_molecular_weight>
133.15394

> <s_m_molecular_formula>
C7H7N3

> <r_epik_Ionization_Penalty>
  0.0058

> <r_epik_Ionization_Penalty_Charging>
  0.0000

> <r_epik_Ionization_Penalty_Neutral>
  0.0058

> <r_epik_State_Penalty>
  0.0000

> <i_epik_Tot_Q>
0

> <r_epik_Metal_State_Penalty>
  0.0000

> <b_epik_Metal_Only>
0

> <s_m_entry_id>
4541

> <s_canvas_Unique_SMILES_Stereo>
n1cn(C)c(c12)cncc2

$$$$
Schrodinger_fragment_136
                    3D
 Structure written by MMmdl.
 18 19  0  0  1  0            999 V2000
    4.1943   -2.6779    0.0258 C   0  0  0  0  0  0
    4.1876   -4.0825    0.0236 C   0  0  0  0  0  0
    5.4067   -4.7506    0.0248 C   0  0  0  0  0  0
    6.5655   -2.7414    0.0301 C   0  0  0  0  0  0
    5.3857   -1.9692    0.0291 C   0  0  0  0  0  0
    2.8618   -2.2729    0.0239 N   0  3  0  0  0  0
    2.0400   -3.3605    0.0207 C   0  0  0  0  0  0
    2.8426   -4.4683    0.0205 N   0  0  0  0  0  0
    2.5073   -5.8970    0.0176 C   0  0  0  0  0  0
    5.4516   -5.8297    0.0231 H   0  0  0  0  0  0
    7.5303   -2.2514    0.0326 H   0  0  0  0  0  0
    5.4291   -0.8897    0.0309 H   0  0  0  0  0  0
    0.9544   -3.3385    0.0187 H   0  0  0  0  0  0
    1.4228   -6.0183    0.0154 H   0  0  0  0  0  0
    2.9159   -6.3734    0.9104 H   0  0  0  0  0  0
    2.9191   -6.3706   -0.8752 H   0  0  0  0  0  0
    6.5878   -4.0943    0.0280 N   0  0  0  0  0  0
    2.5178   -1.3208    0.0248 H   0  0  0  0  0  0
  1  2  2  0  0  0
  1  5  1  0  0  0
  1  6  1  0  0  0
  2  3  1  0  0  0
  2  8  1  0  0  0
  3 10  1  0  0  0
  3 17  2  0  0  0
  4  5  2  0  0  0
  4 11  1  0  0  0
  4 17  1  0  0  0
  5 12  1  0  0  0
  6  7  2  0  0  0
  6 18  1  0  0  0
  7  8  1  0  0  0
  7 13  1  0  0  0
  8  9  1  0  0  0
  9 14  1  0  0  0
  9 15  1  0  0  0
  9 16  1  0  0  0
M  CHG  1   6   1
M  END
> <s_m_entry_name>
Schrodinger_fragment_170

> <i_m_number_of_atoms>
18

> <r_m_molecular_weight>
134.16191

> <s_m_molecular_formula>
C7H8N3

> <r_epik_Ionization_Penalty>
  0.4315

> <r_epik_Ionization_Penalty_Charging>
  0.4315

> <r_epik_Ionization_Penalty_Neutral>
  0.0000

> <r_epik_State_Penalty>
  0.4315

> <i_epik_Tot_Q>
1

> <r_epik_Metal_State_Penalty>
  0.6645

> <b_epik_Metal_Only>
0

> <s_m_entry_id>
4542

> <s_canvas_Unique_SMILES_Stereo>
Cn1c[nH+]c(c12)ccnc2

$$$$
Schrodinger_fragment_137
                    3D
 Structure written by MMmdl.
 14 15  0  0  1  0            999 V2000
    2.2153    2.2262    0.0250 C   0  0  0  0  0  0
    2.2114    0.8093    0.0243 C   0  0  0  0  0  0
    3.3137    0.0551    0.0250 N   0  0  0  0  0  0
    4.4924    0.7269    0.0263 C   0  0  0  0  0  0
    4.6063    2.1350    0.0271 C   0  0  0  0  0  0
    3.4354    2.9176    0.0263 C   0  0  0  0  0  0
    0.8991    2.5824    0.0239 N   0  0  0  0  0  0
    0.1466    1.4376    0.0228 C   0  0  0  0  0  0
    0.9086    0.3302    0.0230 N   0  0  0  0  0  0
    5.3854    0.1164    0.0269 H   0  0  0  0  0  0
    5.5853    2.6023    0.0281 H   0  0  0  0  0  0
    3.4744    3.9987    0.0268 H   0  0  0  0  0  0
   -0.9367    1.4284    0.0218 H   0  0  0  0  0  0
    0.5236    3.5278    0.0240 H   0  0  0  0  0  0
  1  6  1  0  0  0
  1  7  1  0  0  0
  1  2  2  0  0  0
  2  9  1  0  0  0
  2  3  1  0  0  0
  3  4  2  0  0  0
  4 10  1  0  0  0
  4  5  1  0  0  0
  5 11  1  0  0  0
  5  6  2  0  0  0
  6 12  1  0  0  0
  7 14  1  0  0  0
  7  8  1  0  0  0
  8 13  1  0  0  0
  8  9  2  0  0  0
M  END
> <s_m_entry_name>
Schrodinger_fragment_173

> <i_m_number_of_atoms>
14

> <r_m_molecular_weight>
119.12685

> <s_m_molecular_formula>
C6H5N3

> <r_epik_Ionization_Penalty>
  0.0035

> <r_epik_Ionization_Penalty_Charging>
  0.0000

> <r_epik_Ionization_Penalty_Neutral>
  0.0035

> <r_epik_State_Penalty>
  0.3069

> <i_epik_Tot_Q>
0

> <r_epik_Metal_State_Penalty>
  1.1316

> <b_epik_Metal_Only>
0

> <s_m_entry_id>
4543

> <s_canvas_Unique_SMILES_Stereo>
[nH]1cnc(c12)nccc2

$$$$
Schrodinger_fragment_137_a
                    3D
 Structure written by MMmdl.
 14 15  0  0  1  0            999 V2000
    2.1495    2.1902    0.0249 C   0  0  0  0  0  0
    2.2269    0.7662    0.0243 C   0  0  0  0  0  0
    3.3533   -0.0037    0.0250 N   0  0  0  0  0  0
    4.5075    0.7069    0.0263 C   0  0  0  0  0  0
    4.5727    2.1185    0.0270 C   0  0  0  0  0  0
    3.3805    2.8775    0.0263 C   0  0  0  0  0  0
    0.8311    2.6297    0.0239 N   0  0  0  0  0  0
    0.1618    1.4721    0.0228 C   0  0  0  0  0  0
    0.9107    0.3574    0.0230 N   0  0  0  0  0  0
    5.4215    0.1274    0.0269 H   0  0  0  0  0  0
    5.5372    2.6137    0.0281 H   0  0  0  0  0  0
    3.4029    3.9582    0.0268 H   0  0  0  0  0  0
   -0.9208    1.4324    0.0218 H   0  0  0  0  0  0
    0.5448   -0.5869    0.0222 H   0  0  0  0  0  0
  1  6  1  0  0  0
  1  7  1  0  0  0
  1  2  2  0  0  0
  2  9  1  0  0  0
  2  3  1  0  0  0
  3  4  2  0  0  0
  4 10  1  0  0  0
  4  5  1  0  0  0
  5 11  1  0  0  0
  5  6  2  0  0  0
  6 12  1  0  0  0
  7  8  2  0  0  0
  8 13  1  0  0  0
  8  9  1  0  0  0
  9 14  1  0  0  0
M  END
> <s_m_entry_name>
Schrodinger_fragment_173

> <i_m_number_of_atoms>
14

> <r_m_molecular_weight>
119.12685

> <s_m_molecular_formula>
C6H5N3

> <r_epik_Ionization_Penalty>
  0.0104

> <r_epik_Ionization_Penalty_Charging>
  0.0000

> <r_epik_Ionization_Penalty_Neutral>
  0.0104

> <r_epik_State_Penalty>
  0.5366

> <i_epik_Tot_Q>
0

> <r_epik_Metal_State_Penalty>
  1.3608

> <b_epik_Metal_Only>
0

> <s_m_entry_id>
4544

> <s_canvas_Unique_SMILES_Stereo>
n1c[nH]c(c12)nccc2

$$$$
Schrodinger_fragment_137_b
                    3D
 Structure written by MMmdl.
 13 14  0  0  1  0            999 V2000
    2.1887    2.1560    0.0249 C   0  0  0  0  0  0
    2.2021    0.7675    0.0243 C   0  0  0  0  0  0
    3.3354    0.0507    0.0250 N   0  0  0  0  0  0
    4.5067    0.7340    0.0264 C   0  0  0  0  0  0
    4.5870    2.1413    0.0270 C   0  0  0  0  0  0
    3.3928    2.8862    0.0263 C   0  0  0  0  0  0
    0.9260    2.5494    0.0239 N   0  5  0  0  0  0
    0.1631    1.4305    0.0228 C   0  0  0  0  0  0
    0.9140    0.3059    0.0230 N   0  0  0  0  0  0
    5.4069    0.1375    0.0269 H   0  0  0  0  0  0
    5.5476    2.6367    0.0281 H   0  0  0  0  0  0
    3.4042    3.9665    0.0268 H   0  0  0  0  0  0
   -0.9228    1.5005    0.0218 H   0  0  0  0  0  0
  1  6  1  0  0  0
  1  7  1  0  0  0
  1  2  2  0  0  0
  2  9  1  0  0  0
  2  3  1  0  0  0
  3  4  2  0  0  0
  4 10  1  0  0  0
  4  5  1  0  0  0
  5 11  1  0  0  0
  5  6  2  0  0  0
  6 12  1  0  0  0
  7  8  1  0  0  0
  8 13  1  0  0  0
  8  9  2  0  0  0
M  CHG  1   7  -1
M  END
> <s_m_entry_name>
Schrodinger_fragment_173

> <i_m_number_of_atoms>
14

> <r_m_molecular_weight>
119.12685

> <s_m_molecular_formula>
C6H5N3

> <r_epik_Ionization_Penalty>
  9.4940

> <r_epik_Ionization_Penalty_Charging>
  3.1209

> <r_epik_Ionization_Penalty_Neutral>
  6.3732

> <r_epik_State_Penalty>
  3.4247

> <i_epik_Tot_Q>
-1

> <r_epik_Metal_State_Penalty>
  0.1694

> <b_epik_Metal_Only>
1

> <s_m_entry_id>
4545

> <s_canvas_Unique_SMILES_Stereo>
[n-]1cnc(c12)nccc2

$$$$
Schrodinger_fragment_138
                    3D
 Structure written by MMmdl.
 17 18  0  0  1  0            999 V2000
    4.1440   -2.6500    0.0228 C   0  0  0  0  0  0
    4.2501   -4.0724    0.0230 C   0  0  0  0  0  0
    5.3993   -4.8137    0.0255 N   0  0  0  0  0  0
    6.5354   -4.0769    0.0279 C   0  0  0  0  0  0
    6.5673   -2.6649    0.0281 C   0  0  0  0  0  0
    5.3586   -1.9343    0.0255 C   0  0  0  0  0  0
    2.8210   -2.2361    0.0200 N   0  0  0  0  0  0
    2.1819   -3.4104    0.0186 C   0  0  0  0  0  0
    2.9386   -4.5284    0.0202 N   0  0  0  0  0  0
    2.4782   -5.9044    0.0191 C   0  0  0  0  0  0
    7.4628   -4.6349    0.0299 H   0  0  0  0  0  0
    7.5201   -2.1475    0.0301 H   0  0  0  0  0  0
    5.3561   -0.8532    0.0255 H   0  0  0  0  0  0
    1.1005   -3.4616    0.0163 H   0  0  0  0  0  0
    1.3882   -5.9437    0.0168 H   0  0  0  0  0  0
    2.8497   -6.4169    0.9072 H   0  0  0  0  0  0
    2.8534   -6.4168   -0.8674 H   0  0  0  0  0  0
  1  2  2  0  0  0
  1  6  1  0  0  0
  1  7  1  0  0  0
  2  3  1  0  0  0
  2  9  1  0  0  0
  3  4  2  0  0  0
  4  5  1  0  0  0
  4 11  1  0  0  0
  5  6  2  0  0  0
  5 12  1  0  0  0
  6 13  1  0  0  0
  7  8  2  0  0  0
  8  9  1  0  0  0
  8 14  1  0  0  0
  9 10  1  0  0  0
 10 15  1  0  0  0
 10 16  1  0  0  0
 10 17  1  0  0  0
M  END
> <s_m_entry_name>
Schrodinger_fragment_178

> <i_m_number_of_atoms>
17

> <r_m_molecular_weight>
133.15394

> <s_m_molecular_formula>
C7H7N3

> <r_epik_Ionization_Penalty>
  0.0015

> <r_epik_Ionization_Penalty_Charging>
  0.0000

> <r_epik_Ionization_Penalty_Neutral>
  0.0015

> <r_epik_State_Penalty>
  0.0000

> <i_epik_Tot_Q>
0

> <r_epik_Metal_State_Penalty>
  0.0000

> <b_epik_Metal_Only>
0

> <s_m_entry_id>
4546

> <s_canvas_Unique_SMILES_Stereo>
n1cn(C)c(c12)nccc2

$$$$
Schrodinger_fragment_139
                    3D
 Structure written by MMmdl.
 18 19  0  0  1  0            999 V2000
    4.1952   -2.6625    0.0259 C   0  0  0  0  0  0
    4.1821   -4.0706    0.0236 C   0  0  0  0  0  0
    6.5354   -4.1097    0.0264 C   0  0  0  0  0  0
    6.5849   -2.7016    0.0287 C   0  0  0  0  0  0
    5.3910   -1.9398    0.0284 C   0  0  0  0  0  0
    2.8533   -2.2703    0.0248 N   0  3  0  0  0  0
    2.0416   -3.3704    0.0221 C   0  0  0  0  0  0
    2.8504   -4.4744    0.0214 N   0  0  0  0  0  0
    2.5437   -5.9083    0.0187 C   0  0  0  0  0  0
    7.4391   -4.7047    0.0266 H   0  0  0  0  0  0
    7.5500   -2.2100    0.0306 H   0  0  0  0  0  0
    5.4114   -0.8592    0.0302 H   0  0  0  0  0  0
    0.9560   -3.3558    0.0208 H   0  0  0  0  0  0
    1.4625   -6.0535    0.0172 H   0  0  0  0  0  0
    2.9691   -6.3734    0.9096 H   0  0  0  0  0  0
    2.9713   -6.3706   -0.8726 H   0  0  0  0  0  0
    5.3544   -4.7584    0.0239 N   0  0  0  0  0  0
    2.4936   -1.3221    0.0259 H   0  0  0  0  0  0
  1  2  2  0  0  0
  1  5  1  0  0  0
  1  6  1  0  0  0
  2  8  1  0  0  0
  2 17  1  0  0  0
  3  4  1  0  0  0
  3 10  1  0  0  0
  3 17  2  0  0  0
  4  5  2  0  0  0
  4 11  1  0  0  0
  5 12  1  0  0  0
  6  7  2  0  0  0
  6 18  1  0  0  0
  7  8  1  0  0  0
  7 13  1  0  0  0
  8  9  1  0  0  0
  9 14  1  0  0  0
  9 15  1  0  0  0
  9 16  1  0  0  0
M  CHG  1   6   1
M  END
> <s_m_entry_name>
Schrodinger_fragment_179

> <i_m_number_of_atoms>
18

> <r_m_molecular_weight>
134.16191

> <s_m_molecular_formula>
C7H8N3

> <r_epik_Ionization_Penalty>
  0.4315

> <r_epik_Ionization_Penalty_Charging>
  0.4315

> <r_epik_Ionization_Penalty_Neutral>
  0.0000

> <r_epik_State_Penalty>
  0.4315

> <i_epik_Tot_Q>
1

> <r_epik_Metal_State_Penalty>
  0.6645

> <b_epik_Metal_Only>
0

> <s_m_entry_id>
4547

> <s_canvas_Unique_SMILES_Stereo>
[nH+]1cn(C)c(c12)nccc2

$$$$
Schrodinger_fragment_140
                    3D
 Structure written by MMmdl.
 13 14  0  0  1  0            999 V2000
    4.4360    2.1029    0.0262 C   0  0  0  0  0  0
    4.5849    0.7729    0.0281 N   0  0  0  0  0  0
    3.4741    0.0064    0.0275 C   0  0  0  0  0  0
    2.2302    0.6462    0.0249 C   0  0  0  0  0  0
    2.2083    2.0630    0.0230 C   0  0  0  0  0  0
    3.3051    2.8195    0.0236 N   0  0  0  0  0  0
    0.8956    0.2719    0.0235 N   0  0  0  0  0  0
    0.1899    1.4150    0.0210 C   0  0  0  0  0  0
    0.9049    2.5452    0.0206 N   0  0  0  0  0  0
    5.3523    2.6764    0.0267 H   0  0  0  0  0  0
    3.5773   -1.0697    0.0290 H   0  0  0  0  0  0
    0.4819   -0.6568    0.0241 H   0  0  0  0  0  0
   -0.8937    1.4170    0.0195 H   0  0  0  0  0  0
  1  2  2  0  0  0
  1  6  1  0  0  0
  1 10  1  0  0  0
  2  3  1  0  0  0
  3  4  2  0  0  0
  3 11  1  0  0  0
  4  5  1  0  0  0
  4  7  1  0  0  0
  5  6  2  0  0  0
  5  9  1  0  0  0
  7  8  1  0  0  0
  7 12  1  0  0  0
  8  9  2  0  0  0
  8 13  1  0  0  0
M  END
> <s_m_entry_name>
Schrodinger_fragment_182

> <i_m_number_of_atoms>
13

> <r_m_molecular_weight>
120.11443

> <s_m_molecular_formula>
C5H4N4

> <r_epik_Ionization_Penalty>
  0.0053

> <r_epik_Ionization_Penalty_Charging>
  0.0000

> <r_epik_Ionization_Penalty_Neutral>
  0.0053

> <r_epik_State_Penalty>
  0.4085

> <i_epik_Tot_Q>
0

> <r_epik_Metal_State_Penalty>
  0.6309

> <b_epik_Metal_Only>
0

> <s_m_entry_id>
4548

> <s_canvas_Unique_SMILES_Stereo>
[nH]1cnc(c12)ncnc2

$$$$
Schrodinger_fragment_140_a
                    3D
 Structure written by MMmdl.
 13 14  0  0  1  0            999 V2000
    4.4496    2.1155    0.0262 C   0  0  0  0  0  0
    4.5384    0.7803    0.0280 N   0  0  0  0  0  0
    3.4064    0.0308    0.0274 C   0  0  0  0  0  0
    2.1574    0.6916    0.0247 C   0  0  0  0  0  0
    2.2264    2.1105    0.0230 C   0  0  0  0  0  0
    3.3501    2.8762    0.0236 N   0  0  0  0  0  0
    0.8397    0.2449    0.0235 N   0  0  0  0  0  0
    0.1638    1.3990    0.0210 C   0  0  0  0  0  0
    0.9092    2.5157    0.0206 N   0  0  0  0  0  0
    5.3899    2.6493    0.0268 H   0  0  0  0  0  0
    3.4884   -1.0466    0.0289 H   0  0  0  0  0  0
    0.5398    3.4586    0.0189 H   0  0  0  0  0  0
   -0.9191    1.4335    0.0194 H   0  0  0  0  0  0
  1  6  2  0  0  0
  1 10  1  0  0  0
  1  2  1  0  0  0
  2  3  2  0  0  0
  3 11  1  0  0  0
  3  4  1  0  0  0
  4  5  2  0  0  0
  4  7  1  0  0  0
  5  9  1  0  0  0
  5  6  1  0  0  0
  7  8  2  0  0  0
  8 13  1  0  0  0
  8  9  1  0  0  0
  9 12  1  0  0  0
M  END
> <s_m_entry_name>
Schrodinger_fragment_182

> <i_m_number_of_atoms>
13

> <r_m_molecular_weight>
120.11443

> <s_m_molecular_formula>
C5H4N4

> <r_epik_Ionization_Penalty>
  0.0056

> <r_epik_Ionization_Penalty_Charging>
  0.0000

> <r_epik_Ionization_Penalty_Neutral>
  0.0056

> <r_epik_State_Penalty>
  0.4129

> <i_epik_Tot_Q>
0

> <r_epik_Metal_State_Penalty>
  0.6352

> <b_epik_Metal_Only>
0

> <s_m_entry_id>
4549

> <s_canvas_Unique_SMILES_Stereo>
n1c[nH]c(c12)ncnc2

$$$$
Schrodinger_fragment_140_b
                    3D
 Structure written by MMmdl.
 12 13  0  0  1  0            999 V2000
    4.4626    2.0805    0.0262 C   0  0  0  0  0  0
    4.5751    0.7515    0.0281 N   0  0  0  0  0  0
    3.4248    0.0494    0.0274 C   0  0  0  0  0  0
    2.1883    0.7220    0.0248 C   0  0  0  0  0  0
    2.1998    2.1006    0.0230 C   0  0  0  0  0  0
    3.3359    2.7966    0.0237 N   0  0  0  0  0  0
    0.9287    0.3160    0.0235 N   0  5  0  0  0  0
    0.1620    1.4337    0.0210 C   0  0  0  0  0  0
    0.9097    2.5612    0.0206 N   0  0  0  0  0  0
    5.3859    2.6397    0.0268 H   0  0  0  0  0  0
    3.4929   -1.0287    0.0289 H   0  0  0  0  0  0
   -0.9240    1.3612    0.0195 H   0  0  0  0  0  0
  1  2  2  0  0  0
  1  6  1  0  0  0
  1 10  1  0  0  0
  2  3  1  0  0  0
  3  4  2  0  0  0
  3 11  1  0  0  0
  4  5  1  0  0  0
  4  7  1  0  0  0
  5  6  2  0  0  0
  5  9  1  0  0  0
  7  8  1  0  0  0
  8  9  2  0  0  0
  8 12  1  0  0  0
M  CHG  1   7  -1
M  END
> <s_m_entry_name>
Schrodinger_fragment_182

> <i_m_number_of_atoms>
13

> <r_m_molecular_weight>
120.11443

> <s_m_molecular_formula>
C5H4N4

> <r_epik_Ionization_Penalty>
  5.7628

> <r_epik_Ionization_Penalty_Charging>
  2.7993

> <r_epik_Ionization_Penalty_Neutral>
  2.9635

> <r_epik_State_Penalty>
  3.2025

> <i_epik_Tot_Q>
-1

> <r_epik_Metal_State_Penalty>
  0.6883

> <b_epik_Metal_Only>
1

> <s_m_entry_id>
4550

> <s_canvas_Unique_SMILES_Stereo>
[n-]1cnc(c12)ncnc2

$$$$
Schrodinger_fragment_141
                    3D
 Structure written by MMmdl.
 16 17  0  0  1  0            999 V2000
    6.4450   -2.6709    0.0283 C   0  0  0  0  0  0
    6.6055   -3.9992    0.0281 N   0  0  0  0  0  0
    5.4987   -4.7735    0.0259 C   0  0  0  0  0  0
    4.2465   -4.1495    0.0239 C   0  0  0  0  0  0
    4.2158   -2.7332    0.0244 C   0  0  0  0  0  0
    5.3070   -1.9658    0.0266 N   0  0  0  0  0  0
    2.9166   -4.5511    0.0214 N   0  0  0  0  0  0
    2.2139   -3.3982    0.0206 C   0  0  0  0  0  0
    2.9131   -2.2587    0.0222 N   0  0  0  0  0  0
    2.3947   -5.9048    0.0200 C   0  0  0  0  0  0
    7.3560   -2.0889    0.0301 H   0  0  0  0  0  0
    5.6087   -5.8487    0.0257 H   0  0  0  0  0  0
    1.1311   -3.3962    0.0187 H   0  0  0  0  0  0
    1.3037   -5.8933    0.0181 H   0  0  0  0  0  0
    2.7377   -6.4361    0.9086 H   0  0  0  0  0  0
    2.7408   -6.4355   -0.8677 H   0  0  0  0  0  0
  1  2  2  0  0  0
  1  6  1  0  0  0
  1 11  1  0  0  0
  2  3  1  0  0  0
  3  4  2  0  0  0
  3 12  1  0  0  0
  4  5  1  0  0  0
  4  7  1  0  0  0
  5  6  2  0  0  0
  5  9  1  0  0  0
  7  8  1  0  0  0
  7 10  1  0  0  0
  8  9  2  0  0  0
  8 13  1  0  0  0
 10 14  1  0  0  0
 10 15  1  0  0  0
 10 16  1  0  0  0
M  END
> <s_m_entry_name>
Schrodinger_fragment_183

> <i_m_number_of_atoms>
16

> <r_m_molecular_weight>
134.14152

> <s_m_molecular_formula>
C6H6N4

> <r_epik_Ionization_Penalty>
  0.0001

> <r_epik_Ionization_Penalty_Charging>
  0.0000

> <r_epik_Ionization_Penalty_Neutral>
  0.0001

> <r_epik_State_Penalty>
  0.0000

> <i_epik_Tot_Q>
0

> <r_epik_Metal_State_Penalty>
  0.0000

> <b_epik_Metal_Only>
0

> <s_m_entry_id>
4551

> <s_canvas_Unique_SMILES_Stereo>
Cn1cnc(c12)ncnc2

$$$$
Schrodinger_fragment_142
                    3D
 Structure written by MMmdl.
 13 14  0  0  1  0            999 V2000
    2.2008    2.1539    0.0234 C   0  0  0  0  0  0
    2.2801    0.7491    0.0250 C   0  0  0  0  0  0
    3.4102   -0.0022    0.0273 N   0  0  0  0  0  0
    4.4982    0.7672    0.0279 C   0  0  0  0  0  0
    4.5736    2.0982    0.0266 N   0  0  0  0  0  0
    3.4352    2.8279    0.0243 C   0  0  0  0  0  0
    0.8015    2.4674    0.0212 C   0  0  0  0  0  0
    0.0696    1.3747    0.0214 N   0  0  0  0  0  0
    0.9607    0.3419    0.0237 N   0  0  0  0  0  0
    5.4431    0.2437    0.0297 H   0  0  0  0  0  0
    3.5062    3.9062    0.0233 H   0  0  0  0  0  0
    0.3249    3.4394    0.0196 H   0  0  0  0  0  0
    0.6558   -0.6256    0.0243 H   0  0  0  0  0  0
  1  2  2  0  0  0
  1  6  1  0  0  0
  1  7  1  0  0  0
  2  3  1  0  0  0
  2  9  1  0  0  0
  3  4  2  0  0  0
  4  5  1  0  0  0
  4 10  1  0  0  0
  5  6  2  0  0  0
  6 11  1  0  0  0
  7  8  2  0  0  0
  7 12  1  0  0  0
  8  9  1  0  0  0
  9 13  1  0  0  0
M  END
> <s_m_entry_name>
Schrodinger_fragment_184

> <i_m_number_of_atoms>
13

> <r_m_molecular_weight>
120.11443

> <s_m_molecular_formula>
C5H4N4

> <r_epik_Ionization_Penalty>
  0.0000

> <r_epik_Ionization_Penalty_Charging>
  0.0000

> <r_epik_Ionization_Penalty_Neutral>
  0.0000

> <r_epik_State_Penalty>
  0.4107

> <i_epik_Tot_Q>
0

> <r_epik_Metal_State_Penalty>
  0.4198

> <b_epik_Metal_Only>
0

> <s_m_entry_id>
4552

> <s_canvas_Unique_SMILES_Stereo>
c1n[nH]c(c12)ncnc2

$$$$
Schrodinger_fragment_142_a
                    3D
 Structure written by MMmdl.
 13 14  0  0  1  0            999 V2000
    2.1825    2.1242    0.0234 C   0  0  0  0  0  0
    2.1918    0.7480    0.0249 C   0  0  0  0  0  0
    3.3436    0.0649    0.0271 N   0  0  0  0  0  0
    4.4654    0.7861    0.0278 C   0  0  0  0  0  0
    4.5619    2.1164    0.0265 N   0  0  0  0  0  0
    3.4027    2.8064    0.0243 C   0  0  0  0  0  0
    0.8720    2.5707    0.0212 C   0  0  0  0  0  0
    0.1275    1.4046    0.0215 N   0  0  0  0  0  0
    0.9257    0.2742    0.0237 N   0  0  0  0  0  0
    5.3936    0.2349    0.0296 H   0  0  0  0  0  0
    3.4555    3.8852    0.0232 H   0  0  0  0  0  0
    0.4005    3.5445    0.0196 H   0  0  0  0  0  0
   -0.8894    1.3663    0.0202 H   0  0  0  0  0  0
  1  6  1  0  0  0
  1  2  1  0  0  0
  1  7  2  0  0  0
  2  3  1  0  0  0
  2  9  2  0  0  0
  3  4  2  0  0  0
  4  5  1  0  0  0
  4 10  1  0  0  0
  5  6  2  0  0  0
  6 11  1  0  0  0
  7 12  1  0  0  0
  7  8  1  0  0  0
  8 13  1  0  0  0
  8  9  1  0  0  0
M  END
> <s_m_entry_name>
Schrodinger_fragment_184

> <i_m_number_of_atoms>
13

> <r_m_molecular_weight>
120.11443

> <s_m_molecular_formula>
C5H4N4

> <r_epik_Ionization_Penalty>
  0.0000

> <r_epik_Ionization_Penalty_Charging>
  0.0000

> <r_epik_Ionization_Penalty_Neutral>
  0.0000

> <r_epik_State_Penalty>
  0.4107

> <i_epik_Tot_Q>
0

> <r_epik_Metal_State_Penalty>
  0.4198

> <b_epik_Metal_Only>
0

> <s_m_entry_id>
4553

> <s_canvas_Unique_SMILES_Stereo>
c1[nH]nc(c12)ncnc2

$$$$
Schrodinger_fragment_142_b
                    3D
 Structure written by MMmdl.
 12 13  0  0  1  0            999 V2000
    2.1995    2.1032    0.0235 C   0  0  0  0  0  0
    2.2128    0.7437    0.0249 C   0  0  0  0  0  0
    3.3592    0.0657    0.0271 N   0  0  0  0  0  0
    4.4826    0.7989    0.0278 C   0  0  0  0  0  0
    4.5721    2.1351    0.0265 N   0  0  0  0  0  0
    3.4032    2.8178    0.0243 C   0  0  0  0  0  0
    0.8566    2.4640    0.0213 C   0  0  0  0  0  0
    0.0802    1.3609    0.0215 N   0  0  0  0  0  0
    0.9331    0.3221    0.0237 N   0  5  0  0  0  0
    5.4142    0.2535    0.0296 H   0  0  0  0  0  0
    3.4368    3.8972    0.0232 H   0  0  0  0  0  0
    0.5164    3.4950    0.0198 H   0  0  0  0  0  0
  1  2  2  0  0  0
  1  6  1  0  0  0
  1  7  1  0  0  0
  2  3  1  0  0  0
  2  9  1  0  0  0
  3  4  2  0  0  0
  4  5  1  0  0  0
  4 10  1  0  0  0
  5  6  2  0  0  0
  6 11  1  0  0  0
  7  8  2  0  0  0
  7 12  1  0  0  0
  8  9  1  0  0  0
M  CHG  1   9  -1
M  END
> <s_m_entry_name>
Schrodinger_fragment_184

> <i_m_number_of_atoms>
13

> <r_m_molecular_weight>
120.11443

> <s_m_molecular_formula>
C5H4N4

> <r_epik_Ionization_Penalty>
  8.7939

> <r_epik_Ionization_Penalty_Charging>
  6.1289

> <r_epik_Ionization_Penalty_Neutral>
  2.6650

> <r_epik_State_Penalty>
  6.5395

> <i_epik_Tot_Q>
-1

> <r_epik_Metal_State_Penalty>
  2.4747

> <b_epik_Metal_Only>
1

> <s_m_entry_id>
4554

> <s_canvas_Unique_SMILES_Stereo>
c1n[n-]c(c12)ncnc2

$$$$
Schrodinger_fragment_143
                    3D
 Structure written by MMmdl.
 16 17  0  0  1  0            999 V2000
    4.2049   -2.6580   -0.0088 C   0  0  0  0  0  0
    4.2946   -4.0606    0.0423 C   0  0  0  0  0  0
    5.4308   -4.8012    0.1294 N   0  0  0  0  0  0
    6.5084   -4.0215    0.1631 C   0  0  0  0  0  0
    6.5724   -2.6907    0.1229 N   0  0  0  0  0  0
    5.4306   -1.9726    0.0363 C   0  0  0  0  0  0
    2.8066   -2.3609   -0.0956 C   0  0  0  0  0  0
    2.0853   -3.4598   -0.0993 N   0  0  0  0  0  0
    2.9755   -4.4896   -0.0163 N   0  0  0  0  0  0
    2.4800   -5.8515    0.0011 C   0  0  0  0  0  0
    7.4564   -4.5347    0.2323 H   0  0  0  0  0  0
    5.4930   -0.8942    0.0042 H   0  0  0  0  0  0
    2.3216   -1.3953   -0.1542 H   0  0  0  0  0  0
    1.3914   -5.8729   -0.0568 H   0  0  0  0  0  0
    2.7970   -6.3413    0.9219 H   0  0  0  0  0  0
    2.8923   -6.3986   -0.8468 H   0  0  0  0  0  0
  1  2  2  0  0  0
  1  6  1  0  0  0
  1  7  1  0  0  0
  2  3  1  0  0  0
  2  9  1  0  0  0
  3  4  2  0  0  0
  4  5  1  0  0  0
  4 11  1  0  0  0
  5  6  2  0  0  0
  6 12  1  0  0  0
  7  8  2  0  0  0
  7 13  1  0  0  0
  8  9  1  0  0  0
  9 10  1  0  0  0
 10 14  1  0  0  0
 10 15  1  0  0  0
 10 16  1  0  0  0
M  END
> <s_m_entry_name>
Schrodinger_fragment_186

> <i_m_number_of_atoms>
16

> <r_m_molecular_weight>
134.14152

> <s_m_molecular_formula>
C6H6N4

> <r_epik_Ionization_Penalty>
  0.0000

> <r_epik_Ionization_Penalty_Charging>
  0.0000

> <r_epik_Ionization_Penalty_Neutral>
  0.0000

> <r_epik_State_Penalty>
  0.0000

> <i_epik_Tot_Q>
0

> <r_epik_Metal_State_Penalty>
  0.0000

> <b_epik_Metal_Only>
0

> <s_m_entry_id>
4555

> <s_canvas_Unique_SMILES_Stereo>
c1nn(C)c(c12)ncnc2

$$$$
Schrodinger_fragment_144
                    3D
 Structure written by MMmdl.
 13 14  0  0  1  0            999 V2000
    2.1843    2.1272    0.0234 N   0  0  0  0  0  0
    2.2411    0.7372    0.0250 C   0  0  0  0  0  0
    3.3747    0.0039    0.0273 N   0  0  0  0  0  0
    4.4771    0.7873    0.0278 C   0  0  0  0  0  0
    4.5539    2.1335    0.0264 N   0  0  0  0  0  0
    3.3943    2.8305    0.0241 C   0  0  0  0  0  0
    0.8774    2.5082    0.0213 C   0  0  0  0  0  0
    0.1065    1.4086    0.0215 N   0  0  0  0  0  0
    0.9444    0.2831    0.0239 C   0  0  0  0  0  0
    5.4227    0.2638    0.0296 H   0  0  0  0  0  0
    3.3957    3.9113    0.0229 H   0  0  0  0  0  0
    0.5181    3.5298    0.0197 H   0  0  0  0  0  0
    0.5748   -0.7338    0.0245 H   0  0  0  0  0  0
  1  2  1  0  0  0
  1  6  1  0  0  0
  1  7  1  0  0  0
  2  3  1  0  0  0
  2  9  2  0  0  0
  3  4  2  0  0  0
  4  5  1  0  0  0
  4 10  1  0  0  0
  5  6  2  0  0  0
  6 11  1  0  0  0
  7  8  2  0  0  0
  7 12  1  0  0  0
  8  9  1  0  0  0
  9 13  1  0  0  0
M  END
> <s_m_entry_name>
Schrodinger_fragment_187

> <i_m_number_of_atoms>
13

> <r_m_molecular_weight>
120.11443

> <s_m_molecular_formula>
C5H4N4

> <r_epik_Ionization_Penalty>
  0.0017

> <r_epik_Ionization_Penalty_Charging>
  0.0000

> <r_epik_Ionization_Penalty_Neutral>
  0.0017

> <r_epik_State_Penalty>
  0.0000

> <i_epik_Tot_Q>
0

> <r_epik_Metal_State_Penalty>
  0.0000

> <b_epik_Metal_Only>
0

> <s_m_entry_id>
4556

> <s_canvas_Unique_SMILES_Stereo>
c1ncn(c12)cncn2

$$$$
Schrodinger_fragment_145
                    3D
 Structure written by MMmdl.
 16 17  0  0  1  0            999 V2000
    4.1467   -2.6599    0.0240 C   0  0  0  0  0  0
    4.2490   -4.0770    0.0238 C   0  0  0  0  0  0
    5.3962   -4.8128    0.0251 N   0  0  0  0  0  0
    6.4735   -4.0246    0.0268 C   0  0  0  0  0  0
    6.5275   -2.6882    0.0272 N   0  0  0  0  0  0
    5.3776   -1.9681    0.0258 C   0  0  0  0  0  0
    2.8229   -2.2436    0.0223 N   0  0  0  0  0  0
    2.1811   -3.4167    0.0212 C   0  0  0  0  0  0
    2.9382   -4.5344    0.0219 N   0  0  0  0  0  0
    2.4803   -5.9111    0.0209 C   0  0  0  0  0  0
    7.4275   -4.5336    0.0279 H   0  0  0  0  0  0
    5.4325   -0.8889    0.0262 H   0  0  0  0  0  0
    1.0996   -3.4667    0.0197 H   0  0  0  0  0  0
    1.3904   -5.9523    0.0195 H   0  0  0  0  0  0
    2.8537   -6.4230    0.9085 H   0  0  0  0  0  0
    2.8560   -6.4226   -0.8659 H   0  0  0  0  0  0
  1  2  2  0  0  0
  1  6  1  0  0  0
  1  7  1  0  0  0
  2  3  1  0  0  0
  2  9  1  0  0  0
  3  4  2  0  0  0
  4  5  1  0  0  0
  4 11  1  0  0  0
  5  6  2  0  0  0
  6 12  1  0  0  0
  7  8  2  0  0  0
  8  9  1  0  0  0
  8 13  1  0  0  0
  9 10  1  0  0  0
 10 14  1  0  0  0
 10 15  1  0  0  0
 10 16  1  0  0  0
M  END
> <s_m_entry_name>
Schrodinger_fragment_190

> <i_m_number_of_atoms>
16

> <r_m_molecular_weight>
134.14152

> <s_m_molecular_formula>
C6H6N4

> <r_epik_Ionization_Penalty>
  0.0001

> <r_epik_Ionization_Penalty_Charging>
  0.0000

> <r_epik_Ionization_Penalty_Neutral>
  0.0001

> <r_epik_State_Penalty>
  0.0000

> <i_epik_Tot_Q>
0

> <r_epik_Metal_State_Penalty>
  0.0000

> <b_epik_Metal_Only>
0

> <s_m_entry_id>
4557

> <s_canvas_Unique_SMILES_Stereo>
n1cn(C)c(c12)ncnc2

$$$$
Schrodinger_fragment_146
                    3D
 Structure written by MMmdl.
 13 14  0  0  1  0            999 V2000
    2.1875    2.0663    0.0224 N   0  0  0  0  0  0
    2.2394    0.6692    0.0261 C   0  0  0  0  0  0
    3.4097    0.0238    0.0289 N   0  0  0  0  0  0
    4.5133    0.7693    0.0280 C   0  0  0  0  0  0
    4.5021    2.1480    0.0245 N   0  0  0  0  0  0
    3.3525    2.7649    0.0218 C   0  0  0  0  0  0
    0.8927    2.5387    0.0199 N   0  0  0  0  0  0
    0.1641    1.4419    0.0220 C   0  0  0  0  0  0
    0.9374    0.2547    0.0258 C   0  0  0  0  0  0
    5.4839    0.2818    0.0302 H   0  0  0  0  0  0
    3.2713    3.8469    0.0189 H   0  0  0  0  0  0
   -0.9170    1.5162    0.0208 H   0  0  0  0  0  0
    0.5704   -0.7631    0.0281 H   0  0  0  0  0  0
  1  2  1  0  0  0
  1  6  1  0  0  0
  1  7  1  0  0  0
  2  3  1  0  0  0
  2  9  2  0  0  0
  3  4  2  0  0  0
  4  5  1  0  0  0
  4 10  1  0  0  0
  5  6  2  0  0  0
  6 11  1  0  0  0
  7  8  2  0  0  0
  8  9  1  0  0  0
  8 12  1  0  0  0
  9 13  1  0  0  0
M  END
> <s_m_entry_name>
Schrodinger_fragment_191

> <i_m_number_of_atoms>
13

> <r_m_molecular_weight>
120.11443

> <s_m_molecular_formula>
C5H4N4

> <r_epik_Ionization_Penalty>
  0.0000

> <r_epik_Ionization_Penalty_Charging>
  0.0000

> <r_epik_Ionization_Penalty_Neutral>
  0.0000

> <r_epik_State_Penalty>
  0.0000

> <i_epik_Tot_Q>
0

> <r_epik_Metal_State_Penalty>
  0.0000

> <b_epik_Metal_Only>
0

> <s_m_entry_id>
4558

> <s_canvas_Unique_SMILES_Stereo>
c1cnn(c12)cncn2

$$$$
Schrodinger_fragment_147
                    3D
 Structure written by MMmdl.
 11 12  0  0  1  0            999 V2000
    2.1524    2.0940    0.0221 C   0  0  0  0  0  0
    2.2176    0.7161    0.0238 C   0  0  0  0  0  0
    3.3757    0.0386    0.0264 N   0  0  0  0  0  0
    4.4729    0.7921    0.0271 C   0  0  0  0  0  0
    4.5464    2.1250    0.0256 N   0  0  0  0  0  0
    3.3701    2.7934    0.0231 C   0  0  0  0  0  0
    0.8651    2.5184    0.0197 N   0  0  0  0  0  0
    0.1421    1.4049    0.0200 N   0  5  0  0  0  0
    0.9140    0.3130    0.0224 N   0  0  0  0  0  0
    5.4140    0.2632    0.0291 H   0  0  0  0  0  0
    3.4067    3.8729    0.0218 H   0  0  0  0  0  0
  1  6  1  0  0  0
  1  2  1  0  0  0
  1  7  2  0  0  0
  2  3  1  0  0  0
  2  9  2  0  0  0
  3  4  2  0  0  0
  4  5  1  0  0  0
  4 10  1  0  0  0
  5  6  2  0  0  0
  6 11  1  0  0  0
  7  8  1  0  0  0
  8  9  1  0  0  0
M  CHG  1   8  -1
M  END
> <s_m_entry_name>
Schrodinger_fragment_192

> <i_m_number_of_atoms>
12

> <r_m_molecular_weight>
121.10201

> <s_m_molecular_formula>
C4H3N5

> <r_epik_Ionization_Penalty>
  0.0117

> <r_epik_Ionization_Penalty_Charging>
  0.0104

> <r_epik_Ionization_Penalty_Neutral>
  0.0012

> <r_epik_State_Penalty>
  0.0104

> <i_epik_Tot_Q>
-1

> <r_epik_Metal_State_Penalty>
  0.0103

> <b_epik_Metal_Only>
0

> <s_m_entry_id>
4559

> <s_canvas_Unique_SMILES_Stereo>
n1[n-]nc(c12)ncnc2

$$$$
Schrodinger_fragment_147_a
                    3D
 Structure written by MMmdl.
 12 13  0  0  1  0            999 V2000
    2.1397    2.0978    0.0221 C   0  0  0  0  0  0
    2.1778    0.7202    0.0238 C   0  0  0  0  0  0
    3.3431    0.0506    0.0263 N   0  0  0  0  0  0
    4.4538    0.7918    0.0270 C   0  0  0  0  0  0
    4.5292    2.1239    0.0256 N   0  0  0  0  0  0
    3.3568    2.7962    0.0230 C   0  0  0  0  0  0
    0.9022    2.5858    0.0197 N   0  0  0  0  0  0
    0.1875    1.4148    0.0200 N   0  0  0  0  0  0
    0.9268    0.2561    0.0225 N   0  0  0  0  0  0
    5.3908    0.2559    0.0291 H   0  0  0  0  0  0
    3.3958    3.8756    0.0218 H   0  0  0  0  0  0
   -0.8268    1.4025    0.0186 H   0  0  0  0  0  0
  1  6  1  0  0  0
  1  2  1  0  0  0
  1  7  2  0  0  0
  2  3  1  0  0  0
  2  9  2  0  0  0
  3  4  2  0  0  0
  4  5  1  0  0  0
  4 10  1  0  0  0
  5  6  2  0  0  0
  6 11  1  0  0  0
  7  8  1  0  0  0
  8 12  1  0  0  0
  8  9  1  0  0  0
M  END
> <s_m_entry_name>
Schrodinger_fragment_192

> <i_m_number_of_atoms>
12

> <r_m_molecular_weight>
121.10201

> <s_m_molecular_formula>
C4H3N5

> <r_epik_Ionization_Penalty>
  2.3978

> <r_epik_Ionization_Penalty_Charging>
  0.0000

> <r_epik_Ionization_Penalty_Neutral>
  2.3978

> <r_epik_State_Penalty>
  2.3978

> <i_epik_Tot_Q>
0

> <r_epik_Metal_State_Penalty>
  2.4081

> <b_epik_Metal_Only>
0

> <s_m_entry_id>
4560

> <s_canvas_Unique_SMILES_Stereo>
n1[nH]nc(c12)ncnc2

$$$$
Schrodinger_fragment_148
                    3D
 Structure written by MMmdl.
 15 16  0  0  1  0            999 V2000
    4.1695   -2.7080    0.0205 C   0  0  0  0  0  0
    4.3097   -4.1081    0.0253 C   0  0  0  0  0  0
    5.4714   -4.8285    0.0307 N   0  0  0  0  0  0
    6.5293   -4.0113    0.0311 C   0  0  0  0  0  0
    6.5506   -2.6718    0.0270 N   0  0  0  0  0  0
    5.3795   -1.9818    0.0217 C   0  0  0  0  0  0
    2.8269   -2.3546    0.0158 N   0  0  0  0  0  0
    2.1307   -3.4539    0.0172 N   0  0  0  0  0  0
    2.9896   -4.5171    0.0229 N   0  0  0  0  0  0
    2.4616   -5.8663    0.0256 C   0  0  0  0  0  0
    7.4961   -4.4954    0.0352 H   0  0  0  0  0  0
    5.4012   -0.9019    0.0184 H   0  0  0  0  0  0
    1.3712   -5.8567    0.0228 H   0  0  0  0  0  0
    2.8104   -6.3915    0.9147 H   0  0  0  0  0  0
    2.8148   -6.3967   -0.8587 H   0  0  0  0  0  0
  1  2  2  0  0  0
  1  6  1  0  0  0
  1  7  1  0  0  0
  2  3  1  0  0  0
  2  9  1  0  0  0
  3  4  2  0  0  0
  4  5  1  0  0  0
  4 11  1  0  0  0
  5  6  2  0  0  0
  6 12  1  0  0  0
  7  8  2  0  0  0
  8  9  1  0  0  0
  9 10  1  0  0  0
 10 13  1  0  0  0
 10 14  1  0  0  0
 10 15  1  0  0  0
M  END
> <s_m_entry_name>
Schrodinger_fragment_195

> <i_m_number_of_atoms>
15

> <r_m_molecular_weight>
135.1291

> <s_m_molecular_formula>
C5H5N5

> <r_epik_Ionization_Penalty>
  0.0000

> <r_epik_Ionization_Penalty_Charging>
  0.0000

> <r_epik_Ionization_Penalty_Neutral>
  0.0000

> <r_epik_State_Penalty>
  0.0000

> <i_epik_Tot_Q>
0

> <r_epik_Metal_State_Penalty>
  0.0000

> <b_epik_Metal_Only>
0

> <s_m_entry_id>
4561

> <s_canvas_Unique_SMILES_Stereo>
n1nn(C)c(c12)ncnc2

$$$$
Schrodinger_fragment_149
                    3D
 Structure written by MMmdl.
 18 19  0  0  1  0            999 V2000
    0.0370   -2.2431    0.0332 C   0  0  0  0  0  0
    0.0359   -3.6517    0.0303 C   0  0  0  0  0  0
    1.2543   -4.3588    0.0248 C   0  0  0  0  0  0
    2.4783   -3.6583    0.0223 C   0  0  0  0  0  0
    2.4795   -2.2404    0.0253 C   0  0  0  0  0  0
    1.2565   -1.5379    0.0307 C   0  0  0  0  0  0
    3.7013   -4.3608    0.0169 C   0  0  0  0  0  0
    4.9208   -3.6555    0.0144 C   0  0  0  0  0  0
    4.9219   -2.2470    0.0173 C   0  0  0  0  0  0
    3.7035   -1.5399    0.0228 C   0  0  0  0  0  0
   -0.8993   -1.7020    0.0374 H   0  0  0  0  0  0
   -0.9013   -4.1913    0.0322 H   0  0  0  0  0  0
    1.2432   -5.4401    0.0226 H   0  0  0  0  0  0
    1.2472   -0.4566    0.0330 H   0  0  0  0  0  0
    3.7106   -5.4421    0.0146 H   0  0  0  0  0  0
    5.8571   -4.1967    0.0102 H   0  0  0  0  0  0
    5.8591   -1.7073    0.0154 H   0  0  0  0  0  0
    3.7146   -0.4585    0.0250 H   0  0  0  0  0  0
  1  2  2  0  0  0
  1  6  1  0  0  0
  1 11  1  0  0  0
  2  3  1  0  0  0
  2 12  1  0  0  0
  3  4  2  0  0  0
  3 13  1  0  0  0
  4  5  1  0  0  0
  4  7  1  0  0  0
  5  6  2  0  0  0
  5 10  1  0  0  0
  6 14  1  0  0  0
  7  8  2  0  0  0
  7 15  1  0  0  0
  8  9  1  0  0  0
  8 16  1  0  0  0
  9 10  2  0  0  0
  9 17  1  0  0  0
 10 18  1  0  0  0
M  END
> <s_m_entry_name>
Schrodinger_fragment_196

> <i_m_number_of_atoms>
18

> <r_m_molecular_weight>
128.17526

> <s_m_molecular_formula>
C10H8

> <r_epik_Ionization_Penalty>
  0.0000

> <r_epik_Ionization_Penalty_Charging>
  0.0000

> <r_epik_Ionization_Penalty_Neutral>
  0.0000

> <r_epik_State_Penalty>
  0.0000

> <i_epik_Tot_Q>
0

> <r_epik_Metal_State_Penalty>
  0.0000

> <b_epik_Metal_Only>
0

> <s_m_entry_id>
4562

> <s_canvas_Unique_SMILES_Stereo>
c1cccc(c12)cccc2

$$$$
Schrodinger_fragment_150
                    3D
 Structure written by MMmdl.
 17 18  0  0  1  0            999 V2000
    4.8887    2.1213    0.0310 C   0  0  0  0  0  0
    4.8654    0.7145    0.0311 C   0  0  0  0  0  0
    3.6317    0.0333    0.0270 C   0  0  0  0  0  0
    2.4090    0.7332    0.0226 C   0  0  0  0  0  0
    2.4494    2.1531    0.0225 C   0  0  0  0  0  0
    3.6800    2.8430    0.0267 C   0  0  0  0  0  0
    1.2426    0.0490    0.0187 N   0  0  0  0  0  0
    0.0832    0.7404    0.0146 C   0  0  0  0  0  0
    0.0312    2.1436    0.0141 C   0  0  0  0  0  0
    1.2360    2.8681    0.0182 C   0  0  0  0  0  0
    5.8363    2.6471    0.0342 H   0  0  0  0  0  0
    5.7934    0.1576    0.0345 H   0  0  0  0  0  0
    3.6198   -1.0475    0.0271 H   0  0  0  0  0  0
    3.7014    3.9246    0.0265 H   0  0  0  0  0  0
   -0.8278    0.1587    0.0115 H   0  0  0  0  0  0
   -0.9245    2.6534    0.0107 H   0  0  0  0  0  0
    1.2263    3.9493    0.0180 H   0  0  0  0  0  0
  1  2  2  0  0  0
  1  6  1  0  0  0
  1 11  1  0  0  0
  2  3  1  0  0  0
  2 12  1  0  0  0
  3  4  2  0  0  0
  3 13  1  0  0  0
  4  5  1  0  0  0
  4  7  1  0  0  0
  5  6  2  0  0  0
  5 10  1  0  0  0
  6 14  1  0  0  0
  7  8  2  0  0  0
  8  9  1  0  0  0
  8 15  1  0  0  0
  9 10  2  0  0  0
  9 16  1  0  0  0
 10 17  1  0  0  0
M  END
> <s_m_entry_name>
Schrodinger_fragment_197

> <i_m_number_of_atoms>
17

> <r_m_molecular_weight>
129.16284

> <s_m_molecular_formula>
C9H7N1

> <r_epik_Ionization_Penalty>
  0.0058

> <r_epik_Ionization_Penalty_Charging>
  0.0000

> <r_epik_Ionization_Penalty_Neutral>
  0.0058

> <r_epik_State_Penalty>
  0.0000

> <i_epik_Tot_Q>
0

> <r_epik_Metal_State_Penalty>
  0.0000

> <b_epik_Metal_Only>
0

> <s_m_entry_id>
4563

> <s_canvas_Unique_SMILES_Stereo>
c1ccnc(c12)cccc2

$$$$
Schrodinger_fragment_151
                    3D
 Structure written by MMmdl.
 17 18  0  0  1  0            999 V2000
    2.4625    2.1515    0.0216 C   0  0  0  0  0  0
    2.4558    0.7413    0.0229 C   0  0  0  0  0  0
    3.6709    0.0244    0.0280 C   0  0  0  0  0  0
    4.8947    0.7244    0.0317 C   0  0  0  0  0  0
    4.9035    2.1340    0.0304 C   0  0  0  0  0  0
    3.6870    2.8472    0.0254 C   0  0  0  0  0  0
    1.2379    2.8340    0.0165 C   0  0  0  0  0  0
    0.0484    2.0909    0.0129 C   0  0  0  0  0  0
    0.0290    0.7421    0.0141 N   0  0  0  0  0  0
    1.2106    0.0859    0.0190 C   0  0  0  0  0  0
    3.6678   -1.0577    0.0290 H   0  0  0  0  0  0
    5.8311    0.1798    0.0356 H   0  0  0  0  0  0
    5.8452    2.6670    0.0333 H   0  0  0  0  0  0
    3.6984    3.9284    0.0244 H   0  0  0  0  0  0
    1.2009    3.9149    0.0154 H   0  0  0  0  0  0
   -0.9106    2.5893    0.0090 H   0  0  0  0  0  0
    1.1575   -0.9934    0.0198 H   0  0  0  0  0  0
  1  2  2  0  0  0
  1  6  1  0  0  0
  1  7  1  0  0  0
  2  3  1  0  0  0
  2 10  1  0  0  0
  3  4  2  0  0  0
  3 11  1  0  0  0
  4  5  1  0  0  0
  4 12  1  0  0  0
  5  6  2  0  0  0
  5 13  1  0  0  0
  6 14  1  0  0  0
  7  8  2  0  0  0
  7 15  1  0  0  0
  8  9  1  0  0  0
  8 16  1  0  0  0
  9 10  2  0  0  0
 10 17  1  0  0  0
M  END
> <s_m_entry_name>
Schrodinger_fragment_198

> <i_m_number_of_atoms>
17

> <r_m_molecular_weight>
129.16284

> <s_m_molecular_formula>
C9H7N1

> <r_epik_Ionization_Penalty>
  0.0371

> <r_epik_Ionization_Penalty_Charging>
  0.0000

> <r_epik_Ionization_Penalty_Neutral>
  0.0371

> <r_epik_State_Penalty>
  0.0371

> <i_epik_Tot_Q>
0

> <r_epik_Metal_State_Penalty>
  0.0000

> <b_epik_Metal_Only>
0

> <s_m_entry_id>
4564

> <s_canvas_Unique_SMILES_Stereo>
c1cncc(c12)cccc2

$$$$
Schrodinger_fragment_151_a
                    3D
 Structure written by MMmdl.
 18 19  0  0  1  0            999 V2000
    2.4585    2.1507    0.0216 C   0  0  0  0  0  0
    2.4510    0.7312    0.0229 C   0  0  0  0  0  0
    3.6702    0.0212    0.0280 C   0  0  0  0  0  0
    4.8933    0.7237    0.0317 C   0  0  0  0  0  0
    4.9012    2.1331    0.0304 C   0  0  0  0  0  0
    3.6845    2.8459    0.0254 C   0  0  0  0  0  0
    1.2301    2.8444    0.0165 C   0  0  0  0  0  0
    0.0234    2.1120    0.0128 C   0  0  0  0  0  0
    0.0578    0.7599    0.0142 N   0  3  0  0  0  0
    1.2118    0.0544    0.0190 C   0  0  0  0  0  0
    3.6737   -1.0603    0.0290 H   0  0  0  0  0  0
    5.8316    0.1833    0.0356 H   0  0  0  0  0  0
    5.8436    2.6654    0.0333 H   0  0  0  0  0  0
    3.7001    3.9266    0.0244 H   0  0  0  0  0  0
    1.2064    3.9253    0.0154 H   0  0  0  0  0  0
   -0.9609    2.5643    0.0088 H   0  0  0  0  0  0
    1.1075   -1.0213    0.0197 H   0  0  0  0  0  0
   -0.8278    0.2451    0.0115 H   0  0  0  0  0  0
  1  2  2  0  0  0
  1  6  1  0  0  0
  1  7  1  0  0  0
  2  3  1  0  0  0
  2 10  1  0  0  0
  3  4  2  0  0  0
  3 11  1  0  0  0
  4  5  1  0  0  0
  4 12  1  0  0  0
  5  6  2  0  0  0
  5 13  1  0  0  0
  6 14  1  0  0  0
  7  8  2  0  0  0
  7 15  1  0  0  0
  8  9  1  0  0  0
  8 16  1  0  0  0
  9 10  2  0  0  0
  9 18  1  0  0  0
 10 17  1  0  0  0
M  CHG  1   9   1
M  END
> <s_m_entry_name>
Schrodinger_fragment_198

> <i_m_number_of_atoms>
17

> <r_m_molecular_weight>
129.16284

> <s_m_molecular_formula>
C9H7N1

> <r_epik_Ionization_Penalty>
  1.6605

> <r_epik_Ionization_Penalty_Charging>
  1.6605

> <r_epik_Ionization_Penalty_Neutral>
  0.0000

> <r_epik_State_Penalty>
  1.6605

> <i_epik_Tot_Q>
1

> <r_epik_Metal_State_Penalty>
  5.7162

> <b_epik_Metal_Only>
0

> <s_m_entry_id>
4565

> <s_canvas_Unique_SMILES_Stereo>
c1c[nH+]cc(c12)cccc2

$$$$
Schrodinger_fragment_152
                    3D
 Structure written by MMmdl.
 21 22  0  0  1  0            999 V2000
   -0.0210    2.1053    0.3933 C   0  0  0  0  0  0
   -0.0041    0.6915   -0.2039 C   0  0  0  0  0  0
    1.2907    0.0591    0.0107 N   0  0  0  0  0  0
    2.4614    0.7252    0.0171 C   0  0  0  0  0  0
    2.4783    2.1413   -0.0366 C   0  0  0  0  0  0
    1.1757    2.9284   -0.1106 C   0  0  0  0  0  0
    3.6755    0.0121    0.0850 C   0  0  0  0  0  0
    4.9026    0.7042    0.0947 C   0  0  0  0  0  0
    4.9207    2.1111    0.0373 C   0  0  0  0  0  0
    3.7104    2.8281   -0.0285 C   0  0  0  0  0  0
   -0.9587    2.6128    0.1627 H   0  0  0  0  0  0
    0.0279    2.0320    1.4810 H   0  0  0  0  0  0
   -0.7910    0.0813    0.2426 H   0  0  0  0  0  0
   -0.2058    0.7340   -1.2756 H   0  0  0  0  0  0
    1.3146   -0.9589    0.0125 H   0  0  0  0  0  0
    1.0141    3.2130   -1.1508 H   0  0  0  0  0  0
    1.2624    3.8528    0.4613 H   0  0  0  0  0  0
    3.6802   -1.0683    0.1297 H   0  0  0  0  0  0
    5.8313    0.1531    0.1461 H   0  0  0  0  0  0
    5.8638    2.6409    0.0440 H   0  0  0  0  0  0
    3.7307    3.9083   -0.0729 H   0  0  0  0  0  0
  1  2  1  0  0  0
  1  6  1  0  0  0
  1 11  1  0  0  0
  1 12  1  0  0  0
  2  3  1  0  0  0
  2 13  1  0  0  0
  2 14  1  0  0  0
  3  4  1  0  0  0
  3 15  1  0  0  0
  4  5  2  0  0  0
  4  7  1  0  0  0
  5  6  1  0  0  0
  5 10  1  0  0  0
  6 16  1  0  0  0
  6 17  1  0  0  0
  7  8  2  0  0  0
  7 18  1  0  0  0
  8  9  1  0  0  0
  8 19  1  0  0  0
  9 10  2  0  0  0
  9 20  1  0  0  0
 10 21  1  0  0  0
M  END
> <s_m_entry_name>
Schrodinger_fragment_200

> <i_m_number_of_atoms>
21

> <r_m_molecular_weight>
133.19472

> <s_m_molecular_formula>
C9H11N1

> <r_epik_Ionization_Penalty>
  0.0096

> <r_epik_Ionization_Penalty_Charging>
  0.0000

> <r_epik_Ionization_Penalty_Neutral>
  0.0096

> <r_epik_State_Penalty>
  0.0096

> <i_epik_Tot_Q>
0

> <r_epik_Metal_State_Penalty>
  0.0096

> <b_epik_Metal_Only>
0

> <s_m_entry_id>
4566

> <s_canvas_Unique_SMILES_Stereo>
C1CCNc(c12)cccc2

$$$$
Schrodinger_fragment_152_a
                    3D
 Structure written by MMmdl.
 22 23  0  0  1  0            999 V2000
   -0.0347    2.0810    0.3591 C   0  0  0  0  0  0
    0.0199    0.7027   -0.3107 C   0  0  0  0  0  0
    1.2227   -0.0350    0.1231 N   0  3  0  0  0  0
    2.5099    0.7326    0.0517 C   0  0  0  0  0  0
    2.4942    2.1486    0.0058 C   0  0  0  0  0  0
    1.1874    2.9297   -0.0226 C   0  0  0  0  0  0
    3.7244    0.0205    0.0557 C   0  0  0  0  0  0
    4.9428    0.7263    0.0103 C   0  0  0  0  0  0
    4.9404    2.1351   -0.0372 C   0  0  0  0  0  0
    3.7214    2.8435   -0.0404 C   0  0  0  0  0  0
   -0.9523    2.6046    0.0874 H   0  0  0  0  0  0
   -0.0689    1.9520    1.4420 H   0  0  0  0  0  0
   -0.8697    0.1234   -0.0593 H   0  0  0  0  0  0
    0.0267    0.8109   -1.3970 H   0  0  0  0  0  0
    1.0794   -0.3355    1.0734 H   0  0  0  0  0  0
    1.0573    3.3164   -1.0340 H   0  0  0  0  0  0
    1.2596    3.7962    0.6356 H   0  0  0  0  0  0
    3.7256   -1.0580    0.0970 H   0  0  0  0  0  0
    5.8791    0.1862    0.0133 H   0  0  0  0  0  0
    5.8776    2.6750   -0.0728 H   0  0  0  0  0  0
    3.7316    3.9238   -0.0819 H   0  0  0  0  0  0
    1.2972   -0.8675   -0.4385 H   0  0  0  0  0  0
  1  2  1  0  0  0
  1  6  1  0  0  0
  1 11  1  0  0  0
  1 12  1  0  0  0
  2  3  1  0  0  0
  2 13  1  0  0  0
  2 14  1  0  0  0
  3  4  1  0  0  0
  3 15  1  0  0  0
  3 22  1  0  0  0
  4  5  2  0  0  0
  4  7  1  0  0  0
  5  6  1  0  0  0
  5 10  1  0  0  0
  6 16  1  0  0  0
  6 17  1  0  0  0
  7  8  2  0  0  0
  7 18  1  0  0  0
  8  9  1  0  0  0
  8 19  1  0  0  0
  9 10  2  0  0  0
  9 20  1  0  0  0
 10 21  1  0  0  0
M  CHG  1   3   1
M  END
> <s_m_entry_name>
Schrodinger_fragment_200

> <i_m_number_of_atoms>
21

> <r_m_molecular_weight>
133.19472

> <s_m_molecular_formula>
C9H11N1

> <r_epik_Ionization_Penalty>
  4.8964

> <r_epik_Ionization_Penalty_Charging>
  4.8964

> <r_epik_Ionization_Penalty_Neutral>
  0.0000

> <r_epik_State_Penalty>
  2.4482

> <i_epik_Tot_Q>
1

> <r_epik_Metal_State_Penalty>
  2.4482

> <b_epik_Metal_Only>
0

> <s_m_entry_id>
4567

> <s_canvas_Unique_SMILES_Stereo>
C1CC[NH2+]c(c12)cccc2

$$$$
Schrodinger_fragment_153
                    3D
 Structure written by MMmdl.
 24 25  0  0  1  0            999 V2000
    2.0139   -2.7166    0.4917 C   0  0  0  0  0  0
    2.0041   -4.0956   -0.1727 C   0  0  0  0  0  0
    3.2908   -4.7753   -0.0097 N   0  0  0  0  0  0
    4.4693   -4.0938   -0.0373 C   0  0  0  0  0  0
    4.4780   -2.6719   -0.0559 C   0  0  0  0  0  0
    3.1789   -1.8802   -0.0434 C   0  0  0  0  0  0
    5.7108   -4.7762   -0.0413 C   0  0  0  0  0  0
    6.9265   -4.0659   -0.0706 C   0  0  0  0  0  0
    6.9224   -2.6604   -0.0950 C   0  0  0  0  0  0
    5.6994   -1.9664   -0.0876 C   0  0  0  0  0  0
    3.2086   -6.2342    0.0614 C   0  0  0  0  0  0
    1.0670   -2.2005    0.3285 H   0  0  0  0  0  0
    2.1178   -2.8385    1.5710 H   0  0  0  0  0  0
    1.1918   -4.6874    0.2526 H   0  0  0  0  0  0
    1.7907   -3.9935   -1.2382 H   0  0  0  0  0  0
    2.9672   -1.5621   -1.0648 H   0  0  0  0  0  0
    3.2947   -0.9750    0.5537 H   0  0  0  0  0  0
    5.7596   -5.8552   -0.0247 H   0  0  0  0  0  0
    7.8643   -4.6037   -0.0750 H   0  0  0  0  0  0
    7.8562   -2.1149   -0.1184 H   0  0  0  0  0  0
    5.7013   -0.8852   -0.1051 H   0  0  0  0  0  0
    3.7024   -6.6041    0.9613 H   0  0  0  0  0  0
    3.6920   -6.6901   -0.8040 H   0  0  0  0  0  0
    2.1792   -6.5947    0.0839 H   0  0  0  0  0  0
  1  2  1  0  0  0
  1  6  1  0  0  0
  1 12  1  0  0  0
  1 13  1  0  0  0
  2  3  1  0  0  0
  2 14  1  0  0  0
  2 15  1  0  0  0
  3  4  1  0  0  0
  3 11  1  0  0  0
  4  5  2  0  0  0
  4  7  1  0  0  0
  5  6  1  0  0  0
  5 10  1  0  0  0
  6 16  1  0  0  0
  6 17  1  0  0  0
  7  8  2  0  0  0
  7 18  1  0  0  0
  8  9  1  0  0  0
  8 19  1  0  0  0
  9 10  2  0  0  0
  9 20  1  0  0  0
 10 21  1  0  0  0
 11 22  1  0  0  0
 11 23  1  0  0  0
 11 24  1  0  0  0
M  END
> <s_m_entry_name>
Schrodinger_fragment_201

> <i_m_number_of_atoms>
24

> <r_m_molecular_weight>
147.22181

> <s_m_molecular_formula>
C10H13N1

> <r_epik_Ionization_Penalty>
  0.0538

> <r_epik_Ionization_Penalty_Charging>
  0.0000

> <r_epik_Ionization_Penalty_Neutral>
  0.0538

> <r_epik_State_Penalty>
  0.0538

> <i_epik_Tot_Q>
0

> <r_epik_Metal_State_Penalty>
  0.0538

> <b_epik_Metal_Only>
0

> <s_m_entry_id>
4568

> <s_canvas_Unique_SMILES_Stereo>
C1CCN(C)c(c12)cccc2

$$$$
Schrodinger_fragment_153_a
                    3D
 Structure written by MMmdl.
 25 26  0  0  1  0            999 V2000
    2.0613   -2.6639    0.5419 C   0  0  0  0  0  0
    2.0183   -4.1119    0.0423 C   0  0  0  0  0  0
    3.2603   -4.8548    0.3731 N   0  3  2  0  0  0
    4.5550   -4.0625    0.1576 C   0  0  0  0  0  0
    4.5131   -2.6630   -0.0823 C   0  0  0  0  0  0
    3.1995   -1.9014   -0.1387 C   0  0  0  0  0  0
    5.8030   -4.7241    0.2419 C   0  0  0  0  0  0
    6.9982   -4.0031    0.0560 C   0  0  0  0  0  0
    6.9558   -2.6208   -0.2042 C   0  0  0  0  0  0
    5.7181   -1.9537   -0.2696 C   0  0  0  0  0  0
    3.2450   -6.1898   -0.2708 C   0  0  0  0  0  0
    1.1111   -2.1657    0.3468 H   0  0  0  0  0  0
    2.1994   -2.6524    1.6239 H   0  0  0  0  0  0
    1.1639   -4.6252    0.4853 H   0  0  0  0  0  0
    1.8619   -4.1203   -1.0377 H   0  0  0  0  0  0
    2.9541   -1.7232   -1.1867 H   0  0  0  0  0  0
    3.3178   -0.9211    0.3252 H   0  0  0  0  0  0
    5.8699   -5.7810    0.4528 H   0  0  0  0  0  0
    7.9506   -4.5119    0.1163 H   0  0  0  0  0  0
    7.8753   -2.0691   -0.3465 H   0  0  0  0  0  0
    5.6981   -0.8892   -0.4603 H   0  0  0  0  0  0
    3.9807   -6.8593    0.1717 H   0  0  0  0  0  0
    3.4515   -6.1090   -1.3383 H   0  0  0  0  0  0
    2.2745   -6.6721   -0.1515 H   0  0  0  0  0  0
    3.1791   -5.0483    1.3603 H   0  0  0  0  0  0
  1  2  1  0  0  0
  1  6  1  0  0  0
  1 12  1  0  0  0
  1 13  1  0  0  0
  2  3  1  0  0  0
  2 14  1  0  0  0
  2 15  1  0  0  0
  3  4  1  0  0  0
  3 11  1  0  0  0
  3 25  1  0  0  0
  4  5  2  0  0  0
  4  7  1  0  0  0
  5  6  1  0  0  0
  5 10  1  0  0  0
  6 16  1  0  0  0
  6 17  1  0  0  0
  7  8  2  0  0  0
  7 18  1  0  0  0
  8  9  1  0  0  0
  8 19  1  0  0  0
  9 10  2  0  0  0
  9 20  1  0  0  0
 10 21  1  0  0  0
 11 22  1  0  0  0
 11 23  1  0  0  0
 11 24  1  0  0  0
M  CHG  1   3   1
M  END
> <s_m_entry_name>
Schrodinger_fragment_201

> <i_m_number_of_atoms>
24

> <r_m_molecular_weight>
147.22181

> <s_m_molecular_formula>
C10H13N1

> <r_epik_Ionization_Penalty>
  1.4480

> <r_epik_Ionization_Penalty_Charging>
  1.4480

> <r_epik_Ionization_Penalty_Neutral>
  0.0000

> <r_epik_State_Penalty>
  1.4480

> <i_epik_Tot_Q>
1

> <r_epik_Metal_State_Penalty>
  1.4480

> <b_epik_Metal_Only>
0

> <s_m_entry_id>
4569

> <s_canvas_Unique_SMILES_Stereo>
C1CC[N@@H+](C)c(c12)cccc2

$$$$
Schrodinger_fragment_154
                    3D
 Structure written by MMmdl.
 21 22  0  0  1  0            999 V2000
    4.4778   -2.6540    0.0636 C   0  0  0  0  0  0
    4.4652   -4.0672    0.0058 C   0  0  0  0  0  0
    5.6834   -4.7758   -0.0312 C   0  0  0  0  0  0
    6.9081   -4.0801   -0.0021 C   0  0  0  0  0  0
    6.9187   -2.6731    0.0607 C   0  0  0  0  0  0
    5.7049   -1.9595    0.0941 C   0  0  0  0  0  0
    3.1619   -1.8946    0.1183 C   0  0  0  0  0  0
    1.9684   -2.7644   -0.3200 C   0  0  0  0  0  0
    3.1435   -4.8237   -0.0531 C   0  0  0  0  0  0
    5.6817   -5.8561   -0.0846 H   0  0  0  0  0  0
    7.8410   -4.6268   -0.0295 H   0  0  0  0  0  0
    7.8596   -2.1402    0.0838 H   0  0  0  0  0  0
    5.7194   -0.8791    0.1455 H   0  0  0  0  0  0
    3.0124   -1.5340    1.1371 H   0  0  0  0  0  0
    3.2237   -1.0093   -0.5166 H   0  0  0  0  0  0
    1.0340   -2.2405   -0.1126 H   0  0  0  0  0  0
    1.9976   -2.9445   -1.3965 H   0  0  0  0  0  0
    2.9780   -5.1514   -1.0811 H   0  0  0  0  0  0
    3.2163   -5.7271    0.5550 H   0  0  0  0  0  0
    1.9998   -4.0349    0.4001 N   0  0  0  0  0  0
    2.1104   -3.8632    1.3969 H   0  0  0  0  0  0
  1  2  2  0  0  0
  1  6  1  0  0  0
  1  7  1  0  0  0
  2  3  1  0  0  0
  2  9  1  0  0  0
  3  4  2  0  0  0
  3 10  1  0  0  0
  4  5  1  0  0  0
  4 11  1  0  0  0
  5  6  2  0  0  0
  5 12  1  0  0  0
  6 13  1  0  0  0
  7  8  1  0  0  0
  7 14  1  0  0  0
  7 15  1  0  0  0
  8 16  1  0  0  0
  8 17  1  0  0  0
  8 20  1  0  0  0
  9 18  1  0  0  0
  9 19  1  0  0  0
  9 20  1  0  0  0
 20 21  1  0  0  0
M  END
> <s_m_entry_name>
Schrodinger_fragment_202

> <i_m_number_of_atoms>
22

> <r_m_molecular_weight>
134.20269

> <s_m_molecular_formula>
C9H12N1

> <r_epik_Ionization_Penalty>
  0.4100

> <r_epik_Ionization_Penalty_Charging>
  0.0000

> <r_epik_Ionization_Penalty_Neutral>
  0.4100

> <r_epik_State_Penalty>
  0.4100

> <i_epik_Tot_Q>
0

> <r_epik_Metal_State_Penalty>
  0.4100

> <b_epik_Metal_Only>
0

> <s_m_entry_id>
4570

> <s_canvas_Unique_SMILES_Stereo>
C1CNCc(c12)cccc2

$$$$
Schrodinger_fragment_154_a
                    3D
 Structure written by MMmdl.
 22 23  0  0  1  0            999 V2000
    4.4744   -2.6607    0.0546 C   0  0  0  0  0  0
    4.4671   -4.0778    0.0042 C   0  0  0  0  0  0
    5.6920   -4.7780   -0.0236 C   0  0  0  0  0  0
    6.9134   -4.0770   -0.0025 C   0  0  0  0  0  0
    6.9174   -2.6703    0.0461 C   0  0  0  0  0  0
    5.7004   -1.9633    0.0767 C   0  0  0  0  0  0
    3.1657   -1.8875    0.1279 C   0  0  0  0  0  0
    1.9612   -2.7288   -0.3222 C   0  0  0  0  0  0
    3.1537   -4.8606   -0.0492 C   0  0  0  0  0  0
    5.7000   -5.8589   -0.0673 H   0  0  0  0  0  0
    7.8488   -4.6196   -0.0255 H   0  0  0  0  0  0
    7.8557   -2.1325    0.0634 H   0  0  0  0  0  0
    5.7126   -0.8824    0.1232 H   0  0  0  0  0  0
    3.0230   -1.5532    1.1563 H   0  0  0  0  0  0
    3.2333   -0.9868   -0.4838 H   0  0  0  0  0  0
    1.0306   -2.2103   -0.0900 H   0  0  0  0  0  0
    1.9813   -2.8703   -1.4038 H   0  0  0  0  0  0
    3.0127   -5.2294   -1.0660 H   0  0  0  0  0  0
    3.2130   -5.7355    0.5993 H   0  0  0  0  0  0
    1.9848   -4.0470    0.3386 N   0  3  0  0  0  0
    1.9997   -3.9147    1.3355 H   0  0  0  0  0  0
    1.1478   -4.5564    0.1091 H   0  0  0  0  0  0
  1  2  2  0  0  0
  1  6  1  0  0  0
  1  7  1  0  0  0
  2  3  1  0  0  0
  2  9  1  0  0  0
  3  4  2  0  0  0
  3 10  1  0  0  0
  4  5  1  0  0  0
  4 11  1  0  0  0
  5  6  2  0  0  0
  5 12  1  0  0  0
  6 13  1  0  0  0
  7  8  1  0  0  0
  7 14  1  0  0  0
  7 15  1  0  0  0
  8 16  1  0  0  0
  8 17  1  0  0  0
  8 20  1  0  0  0
  9 18  1  0  0  0
  9 19  1  0  0  0
  9 20  1  0  0  0
 20 21  1  0  0  0
 20 22  1  0  0  0
M  CHG  1  20   1
M  END
> <s_m_entry_name>
Schrodinger_fragment_202

> <i_m_number_of_atoms>
22

> <r_m_molecular_weight>
134.20269

> <s_m_molecular_formula>
C9H12N1

> <r_epik_Ionization_Penalty>
  0.8228

> <r_epik_Ionization_Penalty_Charging>
  0.8228

> <r_epik_Ionization_Penalty_Neutral>
  0.0000

> <r_epik_State_Penalty>
  0.4114

> <i_epik_Tot_Q>
1

> <r_epik_Metal_State_Penalty>
  0.4114

> <b_epik_Metal_Only>
0

> <s_m_entry_id>
4571

> <s_canvas_Unique_SMILES_Stereo>
C1C[NH2+]Cc(c12)cccc2

$$$$
Schrodinger_fragment_155
                    3D
 Structure written by MMmdl.
 21 22  0  0  1  0            999 V2000
    2.4135    2.1628    0.0523 C   0  0  0  0  0  0
    2.3899    0.7502   -0.0016 C   0  0  0  0  0  0
    3.6713   -0.0698   -0.0569 C   0  0  0  0  0  0
    4.9197    0.7245    0.3567 C   0  0  0  0  0  0
    4.9457    2.1092   -0.3016 C   0  0  0  0  0  0
    3.7209    2.9437    0.1018 C   0  0  0  0  0  0
    1.1881    2.8556    0.0821 C   0  0  0  0  0  0
   -0.0043    2.1152    0.0519 C   0  0  0  0  0  0
    0.0697    0.7149   -0.0046 C   0  0  0  0  0  0
    1.2405    0.0430   -0.0322 N   0  0  0  0  0  0
    3.5732   -0.9559    0.5717 H   0  0  0  0  0  0
    3.7925   -0.4277   -1.0800 H   0  0  0  0  0  0
    4.9211    0.8504    1.4401 H   0  0  0  0  0  0
    5.8197    0.1610    0.1095 H   0  0  0  0  0  0
    5.8618    2.6424   -0.0436 H   0  0  0  0  0  0
    4.9601    1.9854   -1.3857 H   0  0  0  0  0  0
    3.6486    3.8271   -0.5345 H   0  0  0  0  0  0
    3.8513    3.3085    1.1217 H   0  0  0  0  0  0
    1.1608    3.9351    0.1293 H   0  0  0  0  0  0
   -0.9646    2.6116    0.0732 H   0  0  0  0  0  0
   -0.8301    0.1180   -0.0289 H   0  0  0  0  0  0
  1  2  2  0  0  0
  1  6  1  0  0  0
  1  7  1  0  0  0
  2  3  1  0  0  0
  2 10  1  0  0  0
  3  4  1  0  0  0
  3 11  1  0  0  0
  3 12  1  0  0  0
  4  5  1  0  0  0
  4 13  1  0  0  0
  4 14  1  0  0  0
  5  6  1  0  0  0
  5 15  1  0  0  0
  5 16  1  0  0  0
  6 17  1  0  0  0
  6 18  1  0  0  0
  7  8  2  0  0  0
  7 19  1  0  0  0
  8  9  1  0  0  0
  8 20  1  0  0  0
  9 10  2  0  0  0
  9 21  1  0  0  0
M  END
> <s_m_entry_name>
Schrodinger_fragment_203

> <i_m_number_of_atoms>
21

> <r_m_molecular_weight>
133.19472

> <s_m_molecular_formula>
C9H11N1

> <r_epik_Ionization_Penalty>
  0.0410

> <r_epik_Ionization_Penalty_Charging>
  0.0000

> <r_epik_Ionization_Penalty_Neutral>
  0.0410

> <r_epik_State_Penalty>
  0.0410

> <i_epik_Tot_Q>
0

> <r_epik_Metal_State_Penalty>
  0.0000

> <b_epik_Metal_Only>
0

> <s_m_entry_id>
4572

> <s_canvas_Unique_SMILES_Stereo>
C1CCCc(c12)nccc2

$$$$
Schrodinger_fragment_155_a
                    3D
 Structure written by MMmdl.
 22 23  0  0  1  0            999 V2000
    2.4158    2.1560    0.0558 C   0  0  0  0  0  0
    2.4092    0.7394   -0.0001 C   0  0  0  0  0  0
    3.6884   -0.0829   -0.0484 C   0  0  0  0  0  0
    4.9355    0.7214    0.3511 C   0  0  0  0  0  0
    4.9466    2.1082   -0.3053 C   0  0  0  0  0  0
    3.7209    2.9382    0.1090 C   0  0  0  0  0  0
    1.1825    2.8451    0.0821 C   0  0  0  0  0  0
   -0.0203    2.1115    0.0465 C   0  0  0  0  0  0
    0.0323    0.7046   -0.0131 C   0  0  0  0  0  0
    1.2297    0.0801   -0.0349 N   0  3  0  0  0  0
    3.5928   -0.9598    0.5930 H   0  0  0  0  0  0
    3.8066   -0.4523   -1.0677 H   0  0  0  0  0  0
    4.9506    0.8465    1.4348 H   0  0  0  0  0  0
    5.8372    0.1643    0.0942 H   0  0  0  0  0  0
    5.8623    2.6455   -0.0548 H   0  0  0  0  0  0
    4.9518    1.9859   -1.3896 H   0  0  0  0  0  0
    3.6450    3.8257   -0.5208 H   0  0  0  0  0  0
    3.8524    3.2948    1.1315 H   0  0  0  0  0  0
    1.1557    3.9247    0.1307 H   0  0  0  0  0  0
   -0.9723    2.6232    0.0653 H   0  0  0  0  0  0
   -0.8406    0.0666   -0.0447 H   0  0  0  0  0  0
    1.2396   -0.9406   -0.0817 H   0  0  0  0  0  0
  1  2  2  0  0  0
  1  6  1  0  0  0
  1  7  1  0  0  0
  2  3  1  0  0  0
  2 10  1  0  0  0
  3  4  1  0  0  0
  3 11  1  0  0  0
  3 12  1  0  0  0
  4  5  1  0  0  0
  4 13  1  0  0  0
  4 14  1  0  0  0
  5  6  1  0  0  0
  5 15  1  0  0  0
  5 16  1  0  0  0
  6 17  1  0  0  0
  6 18  1  0  0  0
  7  8  2  0  0  0
  7 19  1  0  0  0
  8  9  1  0  0  0
  8 20  1  0  0  0
  9 10  2  0  0  0
  9 21  1  0  0  0
 10 22  1  0  0  0
M  CHG  1  10   1
M  END
> <s_m_entry_name>
Schrodinger_fragment_203

> <i_m_number_of_atoms>
21

> <r_m_molecular_weight>
133.19472

> <s_m_molecular_formula>
C9H11N1

> <r_epik_Ionization_Penalty>
  1.6030

> <r_epik_Ionization_Penalty_Charging>
  1.6030

> <r_epik_Ionization_Penalty_Neutral>
  0.0000

> <r_epik_State_Penalty>
  1.6030

> <i_epik_Tot_Q>
1

> <r_epik_Metal_State_Penalty>
  5.6549

> <b_epik_Metal_Only>
0

> <s_m_entry_id>
4573

> <s_canvas_Unique_SMILES_Stereo>
C1CCCc(c12)[nH+]ccc2

$$$$
Schrodinger_fragment_156
                    3D
 Structure written by MMmdl.
 21 22  0  0  1  0            999 V2000
    2.4412    2.1657    0.0598 C   0  0  0  0  0  0
    2.4351    0.7541   -0.0092 C   0  0  0  0  0  0
    3.7259   -0.0533   -0.0618 C   0  0  0  0  0  0
    4.9676    0.7544    0.3457 C   0  0  0  0  0  0
    4.9681    2.1451   -0.3003 C   0  0  0  0  0  0
    3.7374    2.9601    0.1241 C   0  0  0  0  0  0
    1.2038    2.8322    0.0867 C   0  0  0  0  0  0
    0.0201    2.0776    0.0408 C   0  0  0  0  0  0
    0.0094    0.7299   -0.0280 N   0  0  0  0  0  0
    1.1955    0.0874   -0.0533 C   0  0  0  0  0  0
    3.6340   -0.9379    0.5705 H   0  0  0  0  0  0
    3.8482   -0.4168   -1.0832 H   0  0  0  0  0  0
    4.9856    0.8694    1.4307 H   0  0  0  0  0  0
    5.8728    0.2055    0.0822 H   0  0  0  0  0  0
    5.8800    2.6879   -0.0498 H   0  0  0  0  0  0
    4.9657    2.0293   -1.3850 H   0  0  0  0  0  0
    3.6531    3.8541   -0.4951 H   0  0  0  0  0  0
    3.8655    3.3056    1.1507 H   0  0  0  0  0  0
    1.1532    3.9112    0.1444 H   0  0  0  0  0  0
   -0.9427    2.5667    0.0607 H   0  0  0  0  0  0
    1.1524   -0.9904   -0.1134 H   0  0  0  0  0  0
  1  2  2  0  0  0
  1  6  1  0  0  0
  1  7  1  0  0  0
  2  3  1  0  0  0
  2 10  1  0  0  0
  3  4  1  0  0  0
  3 11  1  0  0  0
  3 12  1  0  0  0
  4  5  1  0  0  0
  4 13  1  0  0  0
  4 14  1  0  0  0
  5  6  1  0  0  0
  5 15  1  0  0  0
  5 16  1  0  0  0
  6 17  1  0  0  0
  6 18  1  0  0  0
  7  8  2  0  0  0
  7 19  1  0  0  0
  8  9  1  0  0  0
  8 20  1  0  0  0
  9 10  2  0  0  0
 10 21  1  0  0  0
M  END
> <s_m_entry_name>
Schrodinger_fragment_205

> <i_m_number_of_atoms>
21

> <r_m_molecular_weight>
133.19472

> <s_m_molecular_formula>
C9H11N1

> <r_epik_Ionization_Penalty>
  0.0742

> <r_epik_Ionization_Penalty_Charging>
  0.0000

> <r_epik_Ionization_Penalty_Neutral>
  0.0742

> <r_epik_State_Penalty>
  0.0742

> <i_epik_Tot_Q>
0

> <r_epik_Metal_State_Penalty>
  0.0001

> <b_epik_Metal_Only>
0

> <s_m_entry_id>
4574

> <s_canvas_Unique_SMILES_Stereo>
C1CCCc(c12)cncc2

$$$$
Schrodinger_fragment_156_a
                    3D
 Structure written by MMmdl.
 22 23  0  0  1  0            999 V2000
    2.4328    2.1586    0.0559 C   0  0  0  0  0  0
    2.4338    0.7408   -0.0124 C   0  0  0  0  0  0
    3.7301   -0.0564   -0.0674 C   0  0  0  0  0  0
    4.9665    0.7541    0.3492 C   0  0  0  0  0  0
    4.9658    2.1434   -0.2984 C   0  0  0  0  0  0
    3.7292    2.9536    0.1185 C   0  0  0  0  0  0
    1.1971    2.8396    0.0870 C   0  0  0  0  0  0
   -0.0040    2.1033    0.0459 C   0  0  0  0  0  0
    0.0407    0.7557   -0.0214 N   0  3  0  0  0  0
    1.1969    0.0592   -0.0523 C   0  0  0  0  0  0
    3.6429   -0.9456    0.5586 H   0  0  0  0  0  0
    3.8574   -0.4107   -1.0912 H   0  0  0  0  0  0
    4.9765    0.8693    1.4342 H   0  0  0  0  0  0
    5.8751    0.2082    0.0914 H   0  0  0  0  0  0
    5.8740    2.6901   -0.0422 H   0  0  0  0  0  0
    4.9722    2.0273   -1.3831 H   0  0  0  0  0  0
    3.6430    3.8446   -0.5043 H   0  0  0  0  0  0
    3.8515    3.3027    1.1443 H   0  0  0  0  0  0
    1.1644    3.9186    0.1448 H   0  0  0  0  0  0
   -0.9892    2.5494    0.0658 H   0  0  0  0  0  0
    1.0984   -1.0163   -0.1105 H   0  0  0  0  0  0
   -0.8410    0.2389   -0.0512 H   0  0  0  0  0  0
  1  2  2  0  0  0
  1  6  1  0  0  0
  1  7  1  0  0  0
  2  3  1  0  0  0
  2 10  1  0  0  0
  3  4  1  0  0  0
  3 11  1  0  0  0
  3 12  1  0  0  0
  4  5  1  0  0  0
  4 13  1  0  0  0
  4 14  1  0  0  0
  5  6  1  0  0  0
  5 15  1  0  0  0
  5 16  1  0  0  0
  6 17  1  0  0  0
  6 18  1  0  0  0
  7  8  2  0  0  0
  7 19  1  0  0  0
  8  9  1  0  0  0
  8 20  1  0  0  0
  9 10  2  0  0  0
  9 22  1  0  0  0
 10 21  1  0  0  0
M  CHG  1   9   1
M  END
> <s_m_entry_name>
Schrodinger_fragment_205

> <i_m_number_of_atoms>
21

> <r_m_molecular_weight>
133.19472

> <s_m_molecular_formula>
C9H11N1

> <r_epik_Ionization_Penalty>
  1.2679

> <r_epik_Ionization_Penalty_Charging>
  1.2679

> <r_epik_Ionization_Penalty_Neutral>
  0.0000

> <r_epik_State_Penalty>
  1.2679

> <i_epik_Tot_Q>
1

> <r_epik_Metal_State_Penalty>
  5.2865

> <b_epik_Metal_Only>
0

> <s_m_entry_id>
4575

> <s_canvas_Unique_SMILES_Stereo>
C1CCCc(c12)c[nH+]cc2

$$$$
Schrodinger_fragment_157
                    3D
 Structure written by MMmdl.
 16 17  0  0  1  0            999 V2000
    0.0933    2.1379    0.0263 C   0  0  0  0  0  0
    0.0930    0.7277    0.0295 C   0  0  0  0  0  0
    1.2437    0.0146    0.0291 N   0  0  0  0  0  0
    2.4058    0.7156    0.0254 C   0  0  0  0  0  0
    2.4060    2.1491    0.0221 C   0  0  0  0  0  0
    1.2442    2.8505    0.0226 N   0  0  0  0  0  0
    3.6375    0.0292    0.0248 C   0  0  0  0  0  0
    4.8599    0.7287    0.0210 C   0  0  0  0  0  0
    4.8602    2.1349    0.0178 C   0  0  0  0  0  0
    3.6381    2.8350    0.0183 C   0  0  0  0  0  0
   -0.8359    2.6905    0.0266 H   0  0  0  0  0  0
   -0.8364    0.1754    0.0325 H   0  0  0  0  0  0
    3.6409   -1.0518    0.0273 H   0  0  0  0  0  0
    5.7977    0.1860    0.0206 H   0  0  0  0  0  0
    5.7982    2.6773    0.0148 H   0  0  0  0  0  0
    3.6419    3.9159    0.0158 H   0  0  0  0  0  0
  1  2  2  0  0  0
  1  6  1  0  0  0
  1 11  1  0  0  0
  2  3  1  0  0  0
  2 12  1  0  0  0
  3  4  2  0  0  0
  4  5  1  0  0  0
  4  7  1  0  0  0
  5  6  2  0  0  0
  5 10  1  0  0  0
  7  8  2  0  0  0
  7 13  1  0  0  0
  8  9  1  0  0  0
  8 14  1  0  0  0
  9 10  2  0  0  0
  9 15  1  0  0  0
 10 16  1  0  0  0
M  END
> <s_m_entry_name>
Schrodinger_fragment_207

> <i_m_number_of_atoms>
16

> <r_m_molecular_weight>
130.15042

> <s_m_molecular_formula>
C8H6N2

> <r_epik_Ionization_Penalty>
  0.0000

> <r_epik_Ionization_Penalty_Charging>
  0.0000

> <r_epik_Ionization_Penalty_Neutral>
  0.0000

> <r_epik_State_Penalty>
  0.0000

> <i_epik_Tot_Q>
0

> <r_epik_Metal_State_Penalty>
  0.0000

> <b_epik_Metal_Only>
0

> <s_m_entry_id>
4576

> <s_canvas_Unique_SMILES_Stereo>
n1ccnc(c12)cccc2

$$$$
Schrodinger_fragment_158
                    3D
 Structure written by MMmdl.
 16 17  0  0  1  0            999 V2000
    0.0469    2.1090    0.0273 N   0  0  0  0  0  0
    0.1303    0.7823    0.0292 C   0  0  0  0  0  0
    1.2468    0.0602    0.0283 N   0  0  0  0  0  0
    2.4171    0.7246    0.0252 C   0  0  0  0  0  0
    2.4476    2.1343    0.0230 C   0  0  0  0  0  0
    1.2079    2.7927    0.0242 C   0  0  0  0  0  0
    3.6419    0.0311    0.0241 C   0  0  0  0  0  0
    4.8699    0.7235    0.0208 C   0  0  0  0  0  0
    4.8812    2.1314    0.0187 C   0  0  0  0  0  0
    3.6667    2.8437    0.0198 C   0  0  0  0  0  0
   -0.8019    0.2363    0.0317 H   0  0  0  0  0  0
    1.1436    3.8714    0.0227 H   0  0  0  0  0  0
    3.6362   -1.0497    0.0257 H   0  0  0  0  0  0
    5.8027    0.1756    0.0200 H   0  0  0  0  0  0
    5.8248    2.6646    0.0162 H   0  0  0  0  0  0
    3.6746    3.9259    0.0181 H   0  0  0  0  0  0
  1  2  2  0  0  0
  1  6  1  0  0  0
  2  3  1  0  0  0
  2 11  1  0  0  0
  3  4  2  0  0  0
  4  5  1  0  0  0
  4  7  1  0  0  0
  5  6  2  0  0  0
  5 10  1  0  0  0
  6 12  1  0  0  0
  7  8  2  0  0  0
  7 13  1  0  0  0
  8  9  1  0  0  0
  8 14  1  0  0  0
  9 10  2  0  0  0
  9 15  1  0  0  0
 10 16  1  0  0  0
M  END
> <s_m_entry_name>
Schrodinger_fragment_208

> <i_m_number_of_atoms>
16

> <r_m_molecular_weight>
130.15042

> <s_m_molecular_formula>
C8H6N2

> <r_epik_Ionization_Penalty>
  0.0000

> <r_epik_Ionization_Penalty_Charging>
  0.0000

> <r_epik_Ionization_Penalty_Neutral>
  0.0000

> <r_epik_State_Penalty>
  0.0000

> <i_epik_Tot_Q>
0

> <r_epik_Metal_State_Penalty>
  0.0000

> <b_epik_Metal_Only>
0

> <s_m_entry_id>
4577

> <s_canvas_Unique_SMILES_Stereo>
c1ncnc(c12)cccc2

$$$$
Schrodinger_fragment_159
                    3D
 Structure written by MMmdl.
 16 17  0  0  1  0            999 V2000
    0.0337    2.1334    0.0299 C   0  0  0  0  0  0
    0.0861    0.7298    0.0305 C   0  0  0  0  0  0
    1.2455    0.0378    0.0274 N   0  0  0  0  0  0
    2.4069    0.7271    0.0236 C   0  0  0  0  0  0
    2.4440    2.1325    0.0227 C   0  0  0  0  0  0
    1.2381    2.8574    0.0259 C   0  0  0  0  0  0
    3.6280    0.0480    0.0204 C   0  0  0  0  0  0
    4.8252    0.7717    0.0164 C   0  0  0  0  0  0
    4.8608    2.1171    0.0155 N   0  0  0  0  0  0
    3.6885    2.7819    0.0186 C   0  0  0  0  0  0
   -0.9225    2.6436    0.0324 H   0  0  0  0  0  0
   -0.8253    0.1486    0.0335 H   0  0  0  0  0  0
    1.2337    3.9391    0.0253 H   0  0  0  0  0  0
    3.6464   -1.0326    0.0209 H   0  0  0  0  0  0
    5.7774    0.2604    0.0138 H   0  0  0  0  0  0
    3.7495    3.8609    0.0179 H   0  0  0  0  0  0
  1  2  2  0  0  0
  1  6  1  0  0  0
  1 11  1  0  0  0
  2  3  1  0  0  0
  2 12  1  0  0  0
  3  4  2  0  0  0
  4  5  1  0  0  0
  4  7  1  0  0  0
  5  6  2  0  0  0
  5 10  1  0  0  0
  6 13  1  0  0  0
  7  8  2  0  0  0
  7 14  1  0  0  0
  8  9  1  0  0  0
  8 15  1  0  0  0
  9 10  2  0  0  0
 10 16  1  0  0  0
M  END
> <s_m_entry_name>
Schrodinger_fragment_209

> <i_m_number_of_atoms>
16

> <r_m_molecular_weight>
130.15042

> <s_m_molecular_formula>
C8H6N2

> <r_epik_Ionization_Penalty>
  0.0002

> <r_epik_Ionization_Penalty_Charging>
  0.0000

> <r_epik_Ionization_Penalty_Neutral>
  0.0002

> <r_epik_State_Penalty>
  0.0000

> <i_epik_Tot_Q>
0

> <r_epik_Metal_State_Penalty>
  0.0000

> <b_epik_Metal_Only>
0

> <s_m_entry_id>
4578

> <s_canvas_Unique_SMILES_Stereo>
c1nccc(c12)nccc2

$$$$
Schrodinger_fragment_160
                    3D
 Structure written by MMmdl.
 16 17  0  0  1  0            999 V2000
    0.0430    2.1257    0.0289 C   0  0  0  0  0  0
    0.1200    0.7266    0.0286 C   0  0  0  0  0  0
    1.2908    0.0583    0.0260 N   0  0  0  0  0  0
    2.4550    0.7439    0.0234 C   0  0  0  0  0  0
    2.4536    2.1618    0.0234 C   0  0  0  0  0  0
    1.2346    2.8648    0.0262 C   0  0  0  0  0  0
    3.6206    0.0606    0.0207 N   0  0  0  0  0  0
    4.7900    0.7312    0.0181 C   0  0  0  0  0  0
    4.8642    2.1305    0.0180 C   0  0  0  0  0  0
    3.6711    2.8672    0.0207 C   0  0  0  0  0  0
   -0.9213    2.6211    0.0311 H   0  0  0  0  0  0
   -0.7801    0.1281    0.0306 H   0  0  0  0  0  0
    1.2110    3.9461    0.0263 H   0  0  0  0  0  0
    5.6913    0.1345    0.0161 H   0  0  0  0  0  0
    5.8275    2.6278    0.0159 H   0  0  0  0  0  0
    3.6926    3.9486    0.0207 H   0  0  0  0  0  0
  1  2  2  0  0  0
  1  6  1  0  0  0
  1 11  1  0  0  0
  2  3  1  0  0  0
  2 12  1  0  0  0
  3  4  2  0  0  0
  4  5  1  0  0  0
  4  7  1  0  0  0
  5  6  2  0  0  0
  5 10  1  0  0  0
  6 13  1  0  0  0
  7  8  2  0  0  0
  8  9  1  0  0  0
  8 14  1  0  0  0
  9 10  2  0  0  0
  9 15  1  0  0  0
 10 16  1  0  0  0
M  END
> <s_m_entry_name>
Schrodinger_fragment_211

> <i_m_number_of_atoms>
16

> <r_m_molecular_weight>
130.15042

> <s_m_molecular_formula>
C8H6N2

> <r_epik_Ionization_Penalty>
  0.0000

> <r_epik_Ionization_Penalty_Charging>
  0.0000

> <r_epik_Ionization_Penalty_Neutral>
  0.0000

> <r_epik_State_Penalty>
  0.0000

> <i_epik_Tot_Q>
0

> <r_epik_Metal_State_Penalty>
  0.0000

> <b_epik_Metal_Only>
0

> <s_m_entry_id>
4579

> <s_canvas_Unique_SMILES_Stereo>
c1ccnc(c12)nccc2

$$$$
Schrodinger_fragment_161
                    3D
 Structure written by MMmdl.
 16 17  0  0  1  0            999 V2000
    0.0383    2.1010    0.0277 N   0  0  0  0  0  0
    0.0387    0.7616    0.0298 N   0  0  0  0  0  0
    1.2129    0.0782    0.0287 C   0  0  0  0  0  0
    2.4665    0.7257    0.0253 C   0  0  0  0  0  0
    2.4660    2.1387    0.0231 C   0  0  0  0  0  0
    1.2119    2.7853    0.0244 C   0  0  0  0  0  0
    3.6884    0.0181    0.0242 C   0  0  0  0  0  0
    4.9079    0.7277    0.0207 C   0  0  0  0  0  0
    4.9074    2.1383    0.0185 C   0  0  0  0  0  0
    3.6874    2.8471    0.0196 C   0  0  0  0  0  0
    1.1439   -1.0000    0.0306 H   0  0  0  0  0  0
    1.1422    3.8634    0.0228 H   0  0  0  0  0  0
    3.6893   -1.0642    0.0259 H   0  0  0  0  0  0
    5.8485    0.1920    0.0198 H   0  0  0  0  0  0
    5.8476    2.6747    0.0159 H   0  0  0  0  0  0
    3.6875    3.9294    0.0179 H   0  0  0  0  0  0
  1  2  2  0  0  0
  1  6  1  0  0  0
  2  3  1  0  0  0
  3  4  2  0  0  0
  3 11  1  0  0  0
  4  5  1  0  0  0
  4  7  1  0  0  0
  5  6  2  0  0  0
  5 10  1  0  0  0
  6 12  1  0  0  0
  7  8  2  0  0  0
  7 13  1  0  0  0
  8  9  1  0  0  0
  8 14  1  0  0  0
  9 10  2  0  0  0
  9 15  1  0  0  0
 10 16  1  0  0  0
M  END
> <s_m_entry_name>
Schrodinger_fragment_213

> <i_m_number_of_atoms>
16

> <r_m_molecular_weight>
130.15042

> <s_m_molecular_formula>
C8H6N2

> <r_epik_Ionization_Penalty>
  0.0004

> <r_epik_Ionization_Penalty_Charging>
  0.0000

> <r_epik_Ionization_Penalty_Neutral>
  0.0004

> <r_epik_State_Penalty>
  0.0000

> <i_epik_Tot_Q>
0

> <r_epik_Metal_State_Penalty>
  0.0000

> <b_epik_Metal_Only>
0

> <s_m_entry_id>
4580

> <s_canvas_Unique_SMILES_Stereo>
c1nncc(c12)cccc2

$$$$
Schrodinger_fragment_162
                    3D
 Structure written by MMmdl.
 15 16  0  0  1  0            999 V2000
    0.0510    2.1287    0.0296 C   0  0  0  0  0  0
    0.1308    0.7291    0.0278 C   0  0  0  0  0  0
    1.3021    0.0571    0.0246 N   0  0  0  0  0  0
    2.4514    0.7574    0.0231 C   0  0  0  0  0  0
    2.4518    2.1399    0.0248 C   0  0  0  0  0  0
    1.2452    2.8620    0.0281 C   0  0  0  0  0  0
    3.6039    0.0725    0.0199 N   0  0  0  0  0  0
    4.7281    0.7812    0.0185 C   0  0  0  0  0  0
    4.8376    2.1029    0.0198 N   0  0  0  0  0  0
    3.6886    2.7960    0.0230 C   0  0  0  0  0  0
   -0.9127    2.6254    0.0322 H   0  0  0  0  0  0
   -0.7697    0.1313    0.0289 H   0  0  0  0  0  0
    1.2328    3.9440    0.0294 H   0  0  0  0  0  0
    5.6516    0.2203    0.0159 H   0  0  0  0  0  0
    3.7602    3.8745    0.0242 H   0  0  0  0  0  0
  1  2  2  0  0  0
  1  6  1  0  0  0
  1 11  1  0  0  0
  2  3  1  0  0  0
  2 12  1  0  0  0
  3  4  2  0  0  0
  4  5  1  0  0  0
  4  7  1  0  0  0
  5  6  2  0  0  0
  5 10  1  0  0  0
  6 13  1  0  0  0
  7  8  2  0  0  0
  8  9  1  0  0  0
  8 14  1  0  0  0
  9 10  2  0  0  0
 10 15  1  0  0  0
M  END
> <s_m_entry_name>
Schrodinger_fragment_214

> <i_m_number_of_atoms>
15

> <r_m_molecular_weight>
131.138

> <s_m_molecular_formula>
C7H5N3

> <r_epik_Ionization_Penalty>
  0.0000

> <r_epik_Ionization_Penalty_Charging>
  0.0000

> <r_epik_Ionization_Penalty_Neutral>
  0.0000

> <r_epik_State_Penalty>
  0.0000

> <i_epik_Tot_Q>
0

> <r_epik_Metal_State_Penalty>
  0.0000

> <b_epik_Metal_Only>
0

> <s_m_entry_id>
4581

> <s_canvas_Unique_SMILES_Stereo>
c1ncnc(c12)nccc2

$$$$
Schrodinger_fragment_163
                    3D
 Structure written by MMmdl.
 15 16  0  0  1  0            999 V2000
    0.0534    2.0805    0.0298 C   0  0  0  0  0  0
    0.0478    0.7291    0.0290 N   0  0  0  0  0  0
    1.2416    0.0840    0.0262 C   0  0  0  0  0  0
    2.4978    0.7324    0.0239 C   0  0  0  0  0  0
    2.4716    2.1470    0.0248 C   0  0  0  0  0  0
    1.2409    2.8336    0.0277 C   0  0  0  0  0  0
    3.6717    0.0634    0.0211 N   0  0  0  0  0  0
    4.7923    0.7850    0.0192 C   0  0  0  0  0  0
    4.8773    2.1144    0.0197 N   0  0  0  0  0  0
    3.7155    2.8026    0.0225 C   0  0  0  0  0  0
   -0.9103    2.5711    0.0321 H   0  0  0  0  0  0
    1.1982   -0.9953    0.0257 H   0  0  0  0  0  0
    1.1981    3.9156    0.0284 H   0  0  0  0  0  0
    5.7237    0.2377    0.0169 H   0  0  0  0  0  0
    3.7806    3.8812    0.0230 H   0  0  0  0  0  0
  1  2  2  0  0  0
  1  6  1  0  0  0
  1 11  1  0  0  0
  2  3  1  0  0  0
  3  4  2  0  0  0
  3 12  1  0  0  0
  4  5  1  0  0  0
  4  7  1  0  0  0
  5  6  2  0  0  0
  5 10  1  0  0  0
  6 13  1  0  0  0
  7  8  2  0  0  0
  8  9  1  0  0  0
  8 14  1  0  0  0
  9 10  2  0  0  0
 10 15  1  0  0  0
M  END
> <s_m_entry_name>
Schrodinger_fragment_216

> <i_m_number_of_atoms>
15

> <r_m_molecular_weight>
131.138

> <s_m_molecular_formula>
C7H5N3

> <r_epik_Ionization_Penalty>
  0.0000

> <r_epik_Ionization_Penalty_Charging>
  0.0000

> <r_epik_Ionization_Penalty_Neutral>
  0.0000

> <r_epik_State_Penalty>
  0.0000

> <i_epik_Tot_Q>
0

> <r_epik_Metal_State_Penalty>
  0.0000

> <b_epik_Metal_Only>
0

> <s_m_entry_id>
4582

> <s_canvas_Unique_SMILES_Stereo>
c1ncnc(c12)cncc2

$$$$
Schrodinger_fragment_164
                    3D
 Structure written by MMmdl.
 15 16  0  0  1  0            999 V2000
    0.0470    2.1424    0.0309 C   0  0  0  0  0  0
    0.0857    0.7379    0.0293 C   0  0  0  0  0  0
    1.2444    0.0421    0.0256 N   0  0  0  0  0  0
    2.4140    0.7298    0.0233 C   0  0  0  0  0  0
    2.4837    2.1536    0.0247 C   0  0  0  0  0  0
    1.2617    2.8577    0.0286 C   0  0  0  0  0  0
    3.6664    0.0798    0.0194 C   0  0  0  0  0  0
    4.8428    0.7464    0.0171 N   0  0  0  0  0  0
    4.7772    2.0749    0.0188 C   0  0  0  0  0  0
    3.6652    2.8075    0.0224 N   0  0  0  0  0  0
   -0.9037    2.6585    0.0339 H   0  0  0  0  0  0
   -0.8292    0.1618    0.0310 H   0  0  0  0  0  0
    1.2603    3.9381    0.0298 H   0  0  0  0  0  0
    3.7216   -0.9990    0.0181 H   0  0  0  0  0  0
    5.7156    2.6107    0.0169 H   0  0  0  0  0  0
  1  2  2  0  0  0
  1  6  1  0  0  0
  1 11  1  0  0  0
  2  3  1  0  0  0
  2 12  1  0  0  0
  3  4  2  0  0  0
  4  5  1  0  0  0
  4  7  1  0  0  0
  5  6  2  0  0  0
  5 10  1  0  0  0
  6 13  1  0  0  0
  7  8  2  0  0  0
  7 14  1  0  0  0
  8  9  1  0  0  0
  9 10  2  0  0  0
  9 15  1  0  0  0
M  END
> <s_m_entry_name>
Schrodinger_fragment_218

> <i_m_number_of_atoms>
15

> <r_m_molecular_weight>
131.138

> <s_m_molecular_formula>
C7H5N3

> <r_epik_Ionization_Penalty>
  0.0000

> <r_epik_Ionization_Penalty_Charging>
  0.0000

> <r_epik_Ionization_Penalty_Neutral>
  0.0000

> <r_epik_State_Penalty>
  0.0000

> <i_epik_Tot_Q>
0

> <r_epik_Metal_State_Penalty>
  0.0000

> <b_epik_Metal_Only>
0

> <s_m_entry_id>
4583

> <s_canvas_Unique_SMILES_Stereo>
n1cncc(c12)nccc2

$$$$
Schrodinger_fragment_165
                    3D
 Structure written by MMmdl.
 14 15  0  0  1  0            999 V2000
    0.1844    2.0783    0.0276 C   0  0  0  0  0  0
    0.0788    0.7453    0.0267 N   0  0  0  0  0  0
    1.2484    0.0898    0.0252 C   0  0  0  0  0  0
    2.5125    0.7055    0.0247 C   0  0  0  0  0  0
    2.4683    2.1361    0.0258 C   0  0  0  0  0  0
    1.3066    2.8082    0.0273 N   0  0  0  0  0  0
    3.6652   -0.0025    0.0232 N   0  0  0  0  0  0
    4.7926    0.7327    0.0228 C   0  0  0  0  0  0
    4.7674    2.1404    0.0240 C   0  0  0  0  0  0
    3.6193    2.8461    0.0255 N   0  0  0  0  0  0
   -0.7448    2.6311    0.0288 H   0  0  0  0  0  0
    1.1782   -0.9882    0.0244 H   0  0  0  0  0  0
    5.7288    0.1913    0.0216 H   0  0  0  0  0  0
    5.6872    2.7077    0.0237 H   0  0  0  0  0  0
  1  2  2  0  0  0
  1  6  1  0  0  0
  1 11  1  0  0  0
  2  3  1  0  0  0
  3  4  2  0  0  0
  3 12  1  0  0  0
  4  5  1  0  0  0
  4  7  1  0  0  0
  5  6  2  0  0  0
  5 10  1  0  0  0
  7  8  2  0  0  0
  8  9  1  0  0  0
  8 13  1  0  0  0
  9 10  2  0  0  0
  9 14  1  0  0  0
M  END
> <s_m_entry_name>
Schrodinger_fragment_220

> <i_m_number_of_atoms>
14

> <r_m_molecular_weight>
132.12558

> <s_m_molecular_formula>
C6H4N4

> <r_epik_Ionization_Penalty>
  0.0000

> <r_epik_Ionization_Penalty_Charging>
  0.0000

> <r_epik_Ionization_Penalty_Neutral>
  0.0000

> <r_epik_State_Penalty>
  0.0000

> <i_epik_Tot_Q>
0

> <r_epik_Metal_State_Penalty>
  0.0000

> <b_epik_Metal_Only>
0

> <s_m_entry_id>
4584

> <s_canvas_Unique_SMILES_Stereo>
n1ccnc(c12)ncnc2

$$$$
Schrodinger_fragment_166
                    3D
 Structure written by MMmdl.
 11 10  0  0  1  0            999 V2000
   -1.0038   -1.9246    0.0279 C   0  0  0  0  0  0
    0.0168   -0.8282    0.0217 C   0  0  0  0  0  0
    1.3171   -1.1384    0.1202 N   0  0  0  0  0  0
   -2.0148   -1.5263   -0.0559 H   0  0  0  0  0  0
   -0.9404   -2.4954    0.9542 H   0  0  0  0  0  0
   -0.8363   -2.6023   -0.8091 H   0  0  0  0  0  0
    2.0597   -0.4531    0.1228 H   0  0  0  0  0  0
    1.6048   -2.1065    0.1980 H   0  0  0  0  0  0
    0.2696    1.2296   -0.0912 H   0  0  0  0  0  0
   -0.3737    0.4507   -0.0819 N   0  3  0  0  0  0
   -1.3574    0.6787   -0.1562 H   0  0  0  0  0  0
  1  2  1  0  0  0
  1  4  1  0  0  0
  1  5  1  0  0  0
  1  6  1  0  0  0
  2  3  1  0  0  0
  2 10  2  0  0  0
  3  7  1  0  0  0
  3  8  1  0  0  0
  9 10  1  0  0  0
 10 11  1  0  0  0
M  CHG  1  10   1
M  END
> <s_m_entry_name>
Schrodinger_fragment_221

> <i_m_number_of_atoms>
11

> <r_m_molecular_weight>
59.09149

> <s_m_molecular_formula>
C2H7N2

> <r_epik_Ionization_Penalty>
  0.0091

> <r_epik_Ionization_Penalty_Charging>
  0.0001

> <r_epik_Ionization_Penalty_Neutral>
  0.0089

> <r_epik_State_Penalty>
  0.0000

> <i_epik_Tot_Q>
1

> <r_epik_Metal_State_Penalty>
  0.0000

> <b_epik_Metal_Only>
0

> <s_m_entry_id>
4585

> <s_canvas_Unique_SMILES_Stereo>
NC(C)=[NH2+]

$$$$
Schrodinger_fragment_167
                    3D
 Structure written by MMmdl.
 13 12  0  0  1  0            999 V2000
   -1.4176   -0.7158    0.0231 N   0  0  0  0  0  0
   -0.5189    0.2763    0.0219 C   0  0  0  0  0  0
   -0.9315    1.5390    0.0151 N   0  0  0  0  0  0
   -1.1182   -2.1547    0.0302 C   0  0  0  0  0  0
   -2.4024   -0.4854    0.0188 H   0  0  0  0  0  0
   -0.2903    2.3198    0.0139 H   0  0  0  0  0  0
   -1.9170    1.7673    0.0108 H   0  0  0  0  0  0
    1.4839    0.7462    0.0266 H   0  0  0  0  0  0
   -2.0411   -2.7343    0.0296 H   0  0  0  0  0  0
   -0.5480   -2.4252    0.9191 H   0  0  0  0  0  0
   -0.5421   -2.4328   -0.8524 H   0  0  0  0  0  0
    0.7867    0.0158    0.0273 N   0  3  0  0  0  0
    1.1205   -0.9368    0.0325 H   0  0  0  0  0  0
  1  2  1  0  0  0
  1  4  1  0  0  0
  1  5  1  0  0  0
  2  3  1  0  0  0
  2 12  2  0  0  0
  3  6  1  0  0  0
  3  7  1  0  0  0
  4  9  1  0  0  0
  4 10  1  0  0  0
  4 11  1  0  0  0
  8 12  1  0  0  0
 12 13  1  0  0  0
M  CHG  1  12   1
M  END
> <s_m_entry_name>
Schrodinger_fragment_222

> <i_m_number_of_atoms>
13

> <r_m_molecular_weight>
74.10616

> <s_m_molecular_formula>
C2H8N3

> <r_epik_Ionization_Penalty>
  0.0000

> <r_epik_Ionization_Penalty_Charging>
  0.0000

> <r_epik_Ionization_Penalty_Neutral>
  0.0000

> <r_epik_State_Penalty>
  0.0000

> <i_epik_Tot_Q>
1

> <r_epik_Metal_State_Penalty>
  0.0000

> <b_epik_Metal_Only>
0

> <s_m_entry_id>
4586

> <s_canvas_Unique_SMILES_Stereo>
NC(=[NH2+])NC

$$$$
Schrodinger_fragment_168
                    3D
 Structure written by MMmdl.
 11 10  0  0  1  0            999 V2000
    0.1247   -2.3432    0.0192 C   0  0  0  0  0  0
    1.3811   -1.4866    0.0235 C   0  0  0  0  0  0
    1.3195   -0.2552    0.0287 O   0  0  0  0  0  0
    2.5062   -2.2149    0.0209 O   0  0  0  0  0  0
    3.7625   -1.5547    0.0244 C   0  0  0  0  0  0
    0.3759   -3.4038    0.0148 H   0  0  0  0  0  0
   -0.4742   -2.1266   -0.8649 H   0  0  0  0  0  0
   -0.4751   -2.1341    0.9045 H   0  0  0  0  0  0
    4.5687   -2.2880    0.0217 H   0  0  0  0  0  0
    3.8737   -0.9318    0.9128 H   0  0  0  0  0  0
    3.8746   -0.9242   -0.8586 H   0  0  0  0  0  0
  1  2  1  0  0  0
  1  6  1  0  0  0
  1  7  1  0  0  0
  1  8  1  0  0  0
  2  3  2  0  0  0
  2  4  1  0  0  0
  4  5  1  0  0  0
  5  9  1  0  0  0
  5 10  1  0  0  0
  5 11  1  0  0  0
M  END
> <s_m_entry_name>
Schrodinger_fragment_223

> <i_m_number_of_atoms>
11

> <r_m_molecular_weight>
74.08007

> <s_m_molecular_formula>
C3H6O2

> <r_epik_Ionization_Penalty>
  0.0000

> <r_epik_Ionization_Penalty_Charging>
  0.0000

> <r_epik_Ionization_Penalty_Neutral>
  0.0000

> <r_epik_State_Penalty>
  0.0000

> <i_epik_Tot_Q>
0

> <r_epik_Metal_State_Penalty>
  0.0000

> <b_epik_Metal_Only>
0

> <s_m_entry_id>
4587

> <s_canvas_Unique_SMILES_Stereo>
CC(=O)OC

$$$$
Schrodinger_fragment_169
                    3D
 Structure written by MMmdl.
 18 18  0  0  1  0            999 V2000
   -0.3017    0.4141    0.3489 C   0  0  0  0  0  0
   -0.7322   -0.8882    0.0284 C   0  0  0  0  0  0
    0.2129   -1.8816   -0.2940 C   0  0  0  0  0  0
    1.5889   -1.5740   -0.2960 C   0  0  0  0  0  0
    2.0256   -0.2687    0.0241 C   0  0  0  0  0  0
    1.0736    0.7246    0.3466 C   0  0  0  0  0  0
    3.4544    0.0520    0.0213 C   0  0  0  0  0  0
    4.3392   -0.7918    0.5467 N   0  0  0  0  0  0
   -1.0289    1.1745    0.5984 H   0  0  0  0  0  0
   -1.7869   -1.1251    0.0301 H   0  0  0  0  0  0
   -0.1198   -2.8802   -0.5417 H   0  0  0  0  0  0
    2.3055   -2.3423   -0.5534 H   0  0  0  0  0  0
    1.3930    1.7256    0.6034 H   0  0  0  0  0  0
    4.8629    1.4528   -0.5247 H   0  0  0  0  0  0
    5.3311   -0.6133    0.5589 H   0  0  0  0  0  0
    4.0032   -1.6329    0.9933 H   0  0  0  0  0  0
    3.8893    1.1936   -0.5081 N   0  3  0  0  0  0
    3.2223    1.8066   -0.9538 H   0  0  0  0  0  0
  1  2  2  0  0  0
  1  6  1  0  0  0
  1  9  1  0  0  0
  2  3  1  0  0  0
  2 10  1  0  0  0
  3  4  2  0  0  0
  3 11  1  0  0  0
  4  5  1  0  0  0
  4 12  1  0  0  0
  5  6  2  0  0  0
  5  7  1  0  0  0
  6 13  1  0  0  0
  7  8  1  0  0  0
  7 17  2  0  0  0
  8 15  1  0  0  0
  8 16  1  0  0  0
 14 17  1  0  0  0
 17 18  1  0  0  0
M  CHG  1  17   1
M  END
> <s_m_entry_name>
Schrodinger_fragment_224

> <i_m_number_of_atoms>
18

> <r_m_molecular_weight>
121.16318

> <s_m_molecular_formula>
C7H9N2

> <r_epik_Ionization_Penalty>
  0.0027

> <r_epik_Ionization_Penalty_Charging>
  0.0013

> <r_epik_Ionization_Penalty_Neutral>
  0.0013

> <r_epik_State_Penalty>
  0.0000

> <i_epik_Tot_Q>
1

> <r_epik_Metal_State_Penalty>
  0.0000

> <b_epik_Metal_Only>
0

> <s_m_entry_id>
4588

> <s_canvas_Unique_SMILES_Stereo>
NC(=[NH2+])c1ccccc1

$$$$
Schrodinger_fragment_170
                    3D
 Structure written by MMmdl.
 18 18  0  0  1  0            999 V2000
    0.2059   -2.4573    0.0258 C   0  0  0  0  0  0
    0.2548   -3.8636    0.0296 C   0  0  0  0  0  0
    1.4987   -4.5218    0.0304 C   0  0  0  0  0  0
    2.6937   -3.7750    0.0274 C   0  0  0  0  0  0
    2.6576   -2.3585    0.0235 C   0  0  0  0  0  0
    1.4003   -1.7099    0.0228 C   0  0  0  0  0  0
    3.9056   -1.5375    0.0203 C   0  0  0  0  0  0
    3.9092   -0.3024    0.0169 O   0  0  0  0  0  0
    5.0265   -2.2835    0.0214 O   0  0  0  0  0  0
    6.2932   -1.6446    0.0186 C   0  0  0  0  0  0
   -0.7494   -1.9499    0.0252 H   0  0  0  0  0  0
   -0.6619   -4.4377    0.0319 H   0  0  0  0  0  0
    1.5374   -5.6027    0.0333 H   0  0  0  0  0  0
    3.6356   -4.3064    0.0281 H   0  0  0  0  0  0
    1.3444   -0.6294    0.0198 H   0  0  0  0  0  0
    7.0868   -2.3916    0.0200 H   0  0  0  0  0  0
    6.4161   -1.0177    0.9026 H   0  0  0  0  0  0
    6.4147   -1.0225   -0.8690 H   0  0  0  0  0  0
  1  2  2  0  0  0
  1  6  1  0  0  0
  1 11  1  0  0  0
  2  3  1  0  0  0
  2 12  1  0  0  0
  3  4  2  0  0  0
  3 13  1  0  0  0
  4  5  1  0  0  0
  4 14  1  0  0  0
  5  6  2  0  0  0
  5  7  1  0  0  0
  6 15  1  0  0  0
  7  8  2  0  0  0
  7  9  1  0  0  0
  9 10  1  0  0  0
 10 16  1  0  0  0
 10 17  1  0  0  0
 10 18  1  0  0  0
M  END
> <s_m_entry_name>
Schrodinger_fragment_225

> <i_m_number_of_atoms>
18

> <r_m_molecular_weight>
136.15176

> <s_m_molecular_formula>
C8H8O2

> <r_epik_Ionization_Penalty>
  0.0000

> <r_epik_Ionization_Penalty_Charging>
  0.0000

> <r_epik_Ionization_Penalty_Neutral>
  0.0000

> <r_epik_State_Penalty>
  0.0000

> <i_epik_Tot_Q>
0

> <r_epik_Metal_State_Penalty>
  0.0000

> <b_epik_Metal_Only>
0

> <s_m_entry_id>
4589

> <s_canvas_Unique_SMILES_Stereo>
COC(=O)c1ccccc1

$$$$
Schrodinger_fragment_171
                    3D
 Structure written by MMmdl.
 10  9  0  0  1  0            999 V2000
    2.4115   -2.1767    0.0047 C   0  0  0  0  0  0
    3.6932   -1.3371   -0.0100 C   0  0  0  0  0  0
    3.6524   -0.1696   -0.4517 O   0  0  0  0  0  0
    2.3572   -2.7763   -0.9043 H   0  0  0  0  0  0
    2.3973   -2.8605    0.8543 H   0  0  0  0  0  0
    0.3860   -1.8208   -0.0401 H   0  0  0  0  0  0
    1.3239   -0.6108   -0.6570 H   0  0  0  0  0  0
    1.2351   -1.2969    0.0732 N   0  3  0  0  0  0
    1.2292   -0.8188    0.9568 H   0  0  0  0  0  0
    4.7474   -1.8590    0.4062 O   0  5  0  0  0  0
  1  2  1  0  0  0
  1  4  1  0  0  0
  1  5  1  0  0  0
  1  8  1  0  0  0
  2  3  2  0  0  0
  2 10  1  0  0  0
  6  8  1  0  0  0
  7  8  1  0  0  0
  8  9  1  0  0  0
M  CHG  2   8   1  10  -1
M  END
> <s_m_entry_name>
Schrodinger_fragment_226

> <i_m_number_of_atoms>
10

> <r_m_molecular_weight>
75.06765

> <s_m_molecular_formula>
C2H5N1O2

> <r_epik_Ionization_Penalty>
  0.0311

> <r_epik_Ionization_Penalty_Charging>
  0.0311

> <r_epik_Ionization_Penalty_Neutral>
  0.0000

> <r_epik_State_Penalty>
  0.0104

> <i_epik_Tot_Q>
0

> <r_epik_Metal_State_Penalty>
  0.0104

> <b_epik_Metal_Only>
0

> <s_m_entry_id>
4590

> <s_canvas_Unique_SMILES_Stereo>
[O-]C(=O)C[NH3+]

$$$$
Schrodinger_fragment_171_a
                    3D
 Structure written by MMmdl.
  9  8  0  0  1  0            999 V2000
    2.3625   -2.3289   -0.0876 C   0  0  0  0  0  0
    3.5139   -1.3578    0.1770 C   0  0  0  0  0  0
    3.2465   -0.1388    0.0903 O   0  0  0  0  0  0
    2.4841   -2.7622   -1.0820 H   0  0  0  0  0  0
    2.3543   -3.1429    0.6397 H   0  0  0  0  0  0
    0.9274   -1.4409    0.9634 H   0  0  0  0  0  0
    1.1311   -1.5637   -0.0235 N   0  0  0  0  0  0
    1.5436   -0.6451   -0.2414 H   0  0  0  0  0  0
    4.6355   -1.8066    0.4746 O   0  5  0  0  0  0
  1  2  1  0  0  0
  1  4  1  0  0  0
  1  5  1  0  0  0
  1  7  1  0  0  0
  2  3  2  0  0  0
  2  9  1  0  0  0
  6  7  1  0  0  0
  7  8  1  0  0  0
M  CHG  1   9  -1
M  END
> <s_m_entry_name>
Schrodinger_fragment_226

> <i_m_number_of_atoms>
10

> <r_m_molecular_weight>
75.06765

> <s_m_molecular_formula>
C2H5N1O2

> <r_epik_Ionization_Penalty>
  2.4030

> <r_epik_Ionization_Penalty_Charging>
  0.0013

> <r_epik_Ionization_Penalty_Neutral>
  2.4017

> <r_epik_State_Penalty>
  2.4017

> <i_epik_Tot_Q>
-1

> <r_epik_Metal_State_Penalty>
  2.4017

> <b_epik_Metal_Only>
0

> <s_m_entry_id>
4591

> <s_canvas_Unique_SMILES_Stereo>
[O-]C(=O)CN

$$$$
Schrodinger_fragment_172
                    3D
 Structure written by MMmdl.
 13 12  0  0  1  0            999 V2000
    2.5022   -2.2020    0.1129 C   0  0  0  0  0  0
    3.7249   -1.3047   -0.0933 C   0  0  0  0  0  0
    3.5571   -0.1858   -0.6235 O   0  0  0  0  0  0
    0.0270   -2.0032   -0.0530 C   0  0  0  0  0  0
    2.4167   -2.8790   -0.7387 H   0  0  0  0  0  0
    2.5925   -2.8091    1.0154 H   0  0  0  0  0  0
   -0.7896   -1.2855    0.0200 H   0  0  0  0  0  0
   -0.1492   -2.7943    0.6757 H   0  0  0  0  0  0
    0.0045   -2.4406   -1.0510 H   0  0  0  0  0  0
    1.3148   -1.3358    0.2012 N   0  3  0  0  0  0
    1.3099   -0.8875    1.1009 H   0  0  0  0  0  0
    1.5013   -0.6097   -0.4766 H   0  0  0  0  0  0
    4.8410   -1.7247    0.2684 O   0  5  0  0  0  0
  1  2  1  0  0  0
  1  5  1  0  0  0
  1  6  1  0  0  0
  1 10  1  0  0  0
  2  3  2  0  0  0
  2 13  1  0  0  0
  4  7  1  0  0  0
  4  8  1  0  0  0
  4  9  1  0  0  0
  4 10  1  0  0  0
 10 11  1  0  0  0
 10 12  1  0  0  0
M  CHG  2  10   1  13  -1
M  END
> <s_m_entry_name>
Schrodinger_fragment_227

> <i_m_number_of_atoms>
13

> <r_m_molecular_weight>
89.09474

> <s_m_molecular_formula>
C3H7N1O2

> <r_epik_Ionization_Penalty>
  0.0139

> <r_epik_Ionization_Penalty_Charging>
  0.0139

> <r_epik_Ionization_Penalty_Neutral>
  0.0000

> <r_epik_State_Penalty>
  0.0069

> <i_epik_Tot_Q>
0

> <r_epik_Metal_State_Penalty>
  0.0069

> <b_epik_Metal_Only>
0

> <s_m_entry_id>
4592

> <s_canvas_Unique_SMILES_Stereo>
[O-]C(=O)C[NH2+]C

$$$$
Schrodinger_fragment_172_a
                    3D
 Structure written by MMmdl.
 12 11  0  0  1  0            999 V2000
    2.4657   -2.2268   -0.1746 C   0  0  0  0  0  0
    3.6641   -1.3564    0.2165 C   0  0  0  0  0  0
    3.4135   -0.2429    0.7294 O   0  0  0  0  0  0
    0.0819   -2.0274    0.1031 C   0  0  0  0  0  0
    2.6560   -2.7721   -1.1008 H   0  0  0  0  0  0
    2.3197   -2.9624    0.6194 H   0  0  0  0  0  0
   -0.7686   -1.3505    0.0095 H   0  0  0  0  0  0
    0.1364   -2.3434    1.1467 H   0  0  0  0  0  0
   -0.1211   -2.9053   -0.5129 H   0  0  0  0  0  0
    1.3051   -1.3566   -0.3169 N   0  0  0  0  0  0
    1.5717   -0.5858    0.3118 H   0  0  0  0  0  0
    4.8175   -1.7777    0.0085 O   0  5  0  0  0  0
  1  2  1  0  0  0
  1  5  1  0  0  0
  1  6  1  0  0  0
  1 10  1  0  0  0
  2  3  2  0  0  0
  2 12  1  0  0  0
  4  7  1  0  0  0
  4  8  1  0  0  0
  4  9  1  0  0  0
  4 10  1  0  0  0
 10 11  1  0  0  0
M  CHG  1  12  -1
M  END
> <s_m_entry_name>
Schrodinger_fragment_227

> <i_m_number_of_atoms>
13

> <r_m_molecular_weight>
89.09474

> <s_m_molecular_formula>
C3H7N1O2

> <r_epik_Ionization_Penalty>
  2.6503

> <r_epik_Ionization_Penalty_Charging>
  0.0118

> <r_epik_Ionization_Penalty_Neutral>
  2.6385

> <r_epik_State_Penalty>
  2.6385

> <i_epik_Tot_Q>
-1

> <r_epik_Metal_State_Penalty>
  2.6385

> <b_epik_Metal_Only>
0

> <s_m_entry_id>
4593

> <s_canvas_Unique_SMILES_Stereo>
[O-]C(=O)CNC

$$$$
Schrodinger_fragment_173
                    3D
 Structure written by MMmdl.
  8  8  0  0  1  0            999 V2000
    5.2164   -3.6734    0.0244 C   0  0  0  0  0  0
    5.2957   -5.0271    0.0168 C   0  0  0  0  0  0
    3.9424   -5.1754    0.0164 C   0  0  0  0  0  0
    3.7834   -3.7466    0.0244 C   0  0  0  0  0  0
    6.1465   -2.8717    0.0286 O   0  0  0  0  0  0
    2.8394   -2.9492    0.0291 O   0  0  0  0  0  0
    6.1263   -5.7269    0.0127 H   0  0  0  0  0  0
    3.1446   -5.9113    0.0125 H   0  0  0  0  0  0
  1  2  1  0  0  0
  1  4  1  0  0  0
  1  5  2  0  0  0
  2  3  2  0  0  0
  2  7  1  0  0  0
  3  4  1  0  0  0
  3  8  1  0  0  0
  4  6  2  0  0  0
M  END
> <s_m_entry_name>
Schrodinger_fragment_228

> <i_m_number_of_atoms>
8

> <r_m_molecular_weight>
82.05934

> <s_m_molecular_formula>
C4H2O2

> <r_epik_Ionization_Penalty>
  0.0000

> <r_epik_Ionization_Penalty_Charging>
  0.0000

> <r_epik_Ionization_Penalty_Neutral>
  0.0000

> <r_epik_State_Penalty>
  0.0000

> <i_epik_Tot_Q>
0

> <r_epik_Metal_State_Penalty>
  0.0000

> <b_epik_Metal_Only>
0

> <s_m_entry_id>
4594

> <s_canvas_Unique_SMILES_Stereo>
O=c1c(=O)cc1

$$$$
Schrodinger_fragment_174
                    3D
 Structure written by MMmdl.
 12 12  0  0  1  0            999 V2000
   -0.0074    1.5322    0.1862 C   0  0  0  0  0  0
    1.4438    0.0582    0.1555 C   0  0  0  0  0  0
    1.4845    1.5559   -0.1346 C   0  0  0  0  0  0
   -0.2308    1.7248    1.2371 H   0  0  0  0  0  0
   -0.6346    2.1229   -0.4820 H   0  0  0  0  0  0
    2.0105   -0.5639   -0.5379 H   0  0  0  0  0  0
    1.6547   -0.1904    1.1973 H   0  0  0  0  0  0
    1.7003    1.7901   -1.1792 H   0  0  0  0  0  0
    2.0950    2.1427    0.5530 H   0  0  0  0  0  0
    0.0114    0.1055   -0.1224 N   0  3  0  0  0  0
   -0.5524   -0.4623    0.4880 H   0  0  0  0  0  0
   -0.1913   -0.0738   -1.0911 H   0  0  0  0  0  0
  1  3  1  0  0  0
  1  4  1  0  0  0
  1  5  1  0  0  0
  1 10  1  0  0  0
  2  3  1  0  0  0
  2  6  1  0  0  0
  2  7  1  0  0  0
  2 10  1  0  0  0
  3  8  1  0  0  0
  3  9  1  0  0  0
 10 11  1  0  0  0
 10 12  1  0  0  0
M  CHG  1  10   1
M  END
> <s_m_entry_name>
Schrodinger_fragment_229

> <i_m_number_of_atoms>
12

> <r_m_molecular_weight>
58.10391

> <s_m_molecular_formula>
C3H8N1

> <r_epik_Ionization_Penalty>
  0.0012

> <r_epik_Ionization_Penalty_Charging>
  0.0012

> <r_epik_Ionization_Penalty_Neutral>
  0.0000

> <r_epik_State_Penalty>
  0.0000

> <i_epik_Tot_Q>
1

> <r_epik_Metal_State_Penalty>
  0.0000

> <b_epik_Metal_Only>
0

> <s_m_entry_id>
4595

> <s_canvas_Unique_SMILES_Stereo>
C1C[NH2+]C1

$$$$
Schrodinger_fragment_175
                    3D
 Structure written by MMmdl.
 14 14  0  0  1  0            999 V2000
   -0.0180    1.9163    0.2006 C   0  0  0  0  0  0
   -0.0223    0.4203   -0.1502 C   0  0  0  0  0  0
    1.3996   -0.0890    0.1172 C   0  0  0  0  0  0
    2.2550    1.1618    0.0250 C   0  0  0  0  0  0
    1.4068    2.4174   -0.0671 C   0  0  0  0  0  0
    3.4876    1.1583    0.0248 O   0  0  0  0  0  0
   -0.7620    2.4702   -0.3732 H   0  0  0  0  0  0
   -0.2570    2.0506    1.2569 H   0  0  0  0  0  0
   -0.7694   -0.1293    0.4237 H   0  0  0  0  0  0
   -0.2623    0.2874   -1.2064 H   0  0  0  0  0  0
    1.4885   -0.5054    1.1206 H   0  0  0  0  0  0
    1.7117   -0.8435   -0.6048 H   0  0  0  0  0  0
    1.4979    2.8334   -1.0706 H   0  0  0  0  0  0
    1.7233    3.1702    0.6548 H   0  0  0  0  0  0
  1  2  1  0  0  0
  1  5  1  0  0  0
  1  7  1  0  0  0
  1  8  1  0  0  0
  2  3  1  0  0  0
  2  9  1  0  0  0
  2 10  1  0  0  0
  3  4  1  0  0  0
  3 11  1  0  0  0
  3 12  1  0  0  0
  4  5  1  0  0  0
  4  6  2  0  0  0
  5 13  1  0  0  0
  5 14  1  0  0  0
M  END
> <s_m_entry_name>
Schrodinger_fragment_230

> <i_m_number_of_atoms>
14

> <r_m_molecular_weight>
84.11891

> <s_m_molecular_formula>
C5H8O1

> <r_epik_Ionization_Penalty>
  0.0000

> <r_epik_Ionization_Penalty_Charging>
  0.0000

> <r_epik_Ionization_Penalty_Neutral>
  0.0000

> <r_epik_State_Penalty>
  0.0000

> <i_epik_Tot_Q>
0

> <r_epik_Metal_State_Penalty>
  0.0000

> <b_epik_Metal_Only>
0

> <s_m_entry_id>
4596

> <s_canvas_Unique_SMILES_Stereo>
O=C1CCCC1

$$$$
Schrodinger_fragment_176
                    3D
 Structure written by MMmdl.
 13 13  0  0  1  0            999 V2000
    4.6791   -2.7033    0.2575 C   0  0  0  0  0  0
    3.2421   -2.7037   -0.2143 C   0  0  0  0  0  0
    5.1243   -4.1175   -0.0985 C   0  0  0  0  0  0
    3.9586   -4.9322    0.0298 O   0  0  0  0  0  0
    2.7944   -4.1145    0.1521 C   0  0  0  0  0  0
    5.2891   -1.9332   -0.2162 H   0  0  0  0  0  0
    4.7215   -2.5552    1.3377 H   0  0  0  0  0  0
    2.6335   -1.9291    0.2538 H   0  0  0  0  0  0
    3.1999   -2.5635   -1.2955 H   0  0  0  0  0  0
    5.4666   -4.1579   -1.1336 H   0  0  0  0  0  0
    5.9356   -4.4719    0.5384 H   0  0  0  0  0  0
    2.4520   -4.1467    1.1875 H   0  0  0  0  0  0
    1.9824   -4.4721   -0.4821 H   0  0  0  0  0  0
  1  2  1  0  0  0
  1  3  1  0  0  0
  1  6  1  0  0  0
  1  7  1  0  0  0
  2  5  1  0  0  0
  2  8  1  0  0  0
  2  9  1  0  0  0
  3  4  1  0  0  0
  3 10  1  0  0  0
  3 11  1  0  0  0
  4  5  1  0  0  0
  5 12  1  0  0  0
  5 13  1  0  0  0
M  END
> <s_m_entry_name>
Schrodinger_fragment_231

> <i_m_number_of_atoms>
13

> <r_m_molecular_weight>
72.10776

> <s_m_molecular_formula>
C4H8O1

> <r_epik_Ionization_Penalty>
  0.0000

> <r_epik_Ionization_Penalty_Charging>
  0.0000

> <r_epik_Ionization_Penalty_Neutral>
  0.0000

> <r_epik_State_Penalty>
  0.0000

> <i_epik_Tot_Q>
0

> <r_epik_Metal_State_Penalty>
  0.0000

> <b_epik_Metal_Only>
0

> <s_m_entry_id>
4597

> <s_canvas_Unique_SMILES_Stereo>
C1CCOC1

$$$$
Schrodinger_fragment_177
                    3D
 Structure written by MMmdl.
 10 10  0  0  1  0            999 V2000
    0.0653    1.9418    0.0203 C   0  0  0  0  0  0
    0.0098    0.4443    0.0200 C   0  0  0  0  0  0
    1.3889    0.0902    0.0225 O   0  0  0  0  0  0
    2.1863    1.1802    0.0241 C   0  0  0  0  0  0
    1.3281    2.3625    0.0227 C   0  0  0  0  0  0
    3.4177    1.1647    0.0263 O   0  0  0  0  0  0
   -0.8181    2.5632    0.0188 H   0  0  0  0  0  0
   -0.4970    0.0693    0.9095 H   0  0  0  0  0  0
   -0.4937    0.0695   -0.8714 H   0  0  0  0  0  0
    1.6912    3.3794    0.0235 H   0  0  0  0  0  0
  1  2  1  0  0  0
  1  5  2  0  0  0
  1  7  1  0  0  0
  2  3  1  0  0  0
  2  8  1  0  0  0
  2  9  1  0  0  0
  3  4  1  0  0  0
  4  5  1  0  0  0
  4  6  2  0  0  0
  5 10  1  0  0  0
M  END
> <s_m_entry_name>
Schrodinger_fragment_232

> <i_m_number_of_atoms>
10

> <r_m_molecular_weight>
84.07528

> <s_m_molecular_formula>
C4H4O2

> <r_epik_Ionization_Penalty>
  0.0000

> <r_epik_Ionization_Penalty_Charging>
  0.0000

> <r_epik_Ionization_Penalty_Neutral>
  0.0000

> <r_epik_State_Penalty>
  0.0000

> <i_epik_Tot_Q>
0

> <r_epik_Metal_State_Penalty>
  0.0000

> <b_epik_Metal_Only>
0

> <s_m_entry_id>
4598

> <s_canvas_Unique_SMILES_Stereo>
O=C1C=CCO1

$$$$
Schrodinger_fragment_178
                    3D
 Structure written by MMmdl.
 15 15  0  0  1  0            999 V2000
    0.4189    2.2678    0.2144 C   0  0  0  0  0  0
    1.8874    2.2697   -0.2013 C   0  0  0  0  0  0
   -0.0285    0.8339   -0.0871 C   0  0  0  0  0  0
    2.3569    0.8581    0.1648 C   0  0  0  0  0  0
    0.3345    2.4657    1.2840 H   0  0  0  0  0  0
   -0.1757    3.0151   -0.3122 H   0  0  0  0  0  0
    1.9691    2.4202   -1.2788 H   0  0  0  0  0  0
    2.4701    3.0493    0.2906 H   0  0  0  0  0  0
   -0.8390    0.5042    0.5639 H   0  0  0  0  0  0
   -0.3814    0.7607   -1.1166 H   0  0  0  0  0  0
    3.1726    0.5118   -0.4708 H   0  0  0  0  0  0
    2.7105    0.8373    1.1965 H   0  0  0  0  0  0
    1.1708   -0.0134    0.0584 N   0  3  0  0  0  0
    1.0990   -0.5876    0.8828 H   0  0  0  0  0  0
    1.2519   -0.6232   -0.7391 H   0  0  0  0  0  0
  1  2  1  0  0  0
  1  3  1  0  0  0
  1  5  1  0  0  0
  1  6  1  0  0  0
  2  4  1  0  0  0
  2  7  1  0  0  0
  2  8  1  0  0  0
  3  9  1  0  0  0
  3 10  1  0  0  0
  3 13  1  0  0  0
  4 11  1  0  0  0
  4 12  1  0  0  0
  4 13  1  0  0  0
 13 14  1  0  0  0
 13 15  1  0  0  0
M  CHG  1  13   1
M  END
> <s_m_entry_name>
Schrodinger_fragment_233

> <i_m_number_of_atoms>
15

> <r_m_molecular_weight>
72.131

> <s_m_molecular_formula>
C4H10N1

> <r_epik_Ionization_Penalty>
  0.0007

> <r_epik_Ionization_Penalty_Charging>
  0.0007

> <r_epik_Ionization_Penalty_Neutral>
  0.0000

> <r_epik_State_Penalty>
  0.0000

> <i_epik_Tot_Q>
1

> <r_epik_Metal_State_Penalty>
  0.0000

> <b_epik_Metal_Only>
0

> <s_m_entry_id>
4599

> <s_canvas_Unique_SMILES_Stereo>
C1CC[NH2+]C1

$$$$
Schrodinger_fragment_179
                    3D
 Structure written by MMmdl.
 11 11  0  0  1  0            999 V2000
   -0.0160    0.4154    0.0168 C   0  0  0  0  0  0
    0.0864    1.9117    0.0210 C   0  0  0  0  0  0
    1.3999    0.0749    0.0219 N   0  0  0  0  0  0
    2.2091    1.1414    0.0279 C   0  0  0  0  0  0
    1.3604    2.3104    0.0274 C   0  0  0  0  0  0
    3.4381    1.0945    0.0329 O   0  0  0  0  0  0
   -0.5272    0.0459    0.9070 H   0  0  0  0  0  0
   -0.5198    0.0504   -0.8794 H   0  0  0  0  0  0
   -0.7806    2.5571    0.0191 H   0  0  0  0  0  0
    1.7313   -0.8815    0.0208 H   0  0  0  0  0  0
    1.7059    3.3338    0.0314 H   0  0  0  0  0  0
  1  2  1  0  0  0
  1  3  1  0  0  0
  1  7  1  0  0  0
  1  8  1  0  0  0
  2  5  2  0  0  0
  2  9  1  0  0  0
  3  4  1  0  0  0
  3 10  1  0  0  0
  4  5  1  0  0  0
  4  6  2  0  0  0
  5 11  1  0  0  0
M  END
> <s_m_entry_name>
Schrodinger_fragment_234

> <i_m_number_of_atoms>
11

> <r_m_molecular_weight>
83.09055

> <s_m_molecular_formula>
C4H5N1O1

> <r_epik_Ionization_Penalty>
  0.0000

> <r_epik_Ionization_Penalty_Charging>
  0.0000

> <r_epik_Ionization_Penalty_Neutral>
  0.0000

> <r_epik_State_Penalty>
  0.0000

> <i_epik_Tot_Q>
0

> <r_epik_Metal_State_Penalty>
  0.0208

> <b_epik_Metal_Only>
0

> <s_m_entry_id>
4600

> <s_canvas_Unique_SMILES_Stereo>
O=C1C=CCN1

$$$$
Schrodinger_fragment_179_a
                    3D
 Structure written by MMmdl.
 10 10  0  0  1  0            999 V2000
    0.0075    0.4216    0.0169 C   0  0  0  0  0  0
    0.0964    1.9246    0.0211 C   0  0  0  0  0  0
    1.4182    0.0239    0.0218 N   0  0  0  0  0  0
    2.1275    1.0679    0.0274 C   0  0  0  0  0  0
    1.3687    2.3080    0.0274 C   0  0  0  0  0  0
    3.3386    1.2933    0.0330 O   0  5  0  0  0  0
   -0.5207    0.0624    0.9029 H   0  0  0  0  0  0
   -0.5133    0.0669   -0.8751 H   0  0  0  0  0  0
   -0.7695    2.5726    0.0192 H   0  0  0  0  0  0
    1.7979    3.3019    0.0317 H   0  0  0  0  0  0
  1  2  1  0  0  0
  1  3  1  0  0  0
  1  7  1  0  0  0
  1  8  1  0  0  0
  2  5  2  0  0  0
  2  9  1  0  0  0
  3  4  2  0  0  0
  4  5  1  0  0  0
  4  6  1  0  0  0
  5 10  1  0  0  0
M  CHG  1   6  -1
M  END
> <s_m_entry_name>
Schrodinger_fragment_234

> <i_m_number_of_atoms>
11

> <r_m_molecular_weight>
83.09055

> <s_m_molecular_formula>
C4H5N1O1

> <r_epik_Ionization_Penalty>
  6.0669

> <r_epik_Ionization_Penalty_Charging>
  6.0669

> <r_epik_Ionization_Penalty_Neutral>
  0.0000

> <r_epik_State_Penalty>
  6.0669

> <i_epik_Tot_Q>
-1

> <r_epik_Metal_State_Penalty>
  1.9949

> <b_epik_Metal_Only>
1

> <s_m_entry_id>
4601

> <s_canvas_Unique_SMILES_Stereo>
[O-]C1=NCC=C1

$$$$
Schrodinger_fragment_180
                    3D
 Structure written by MMmdl.
 11 11  0  0  1  0            999 V2000
    0.0396    1.9329    0.0204 C   0  0  0  0  0  0
   -0.0219    0.4047    0.0248 C   0  0  0  0  0  0
    1.3748    0.0534    0.0246 N   0  0  0  0  0  0
    2.2147    1.1336    0.0208 C   0  0  0  0  0  0
    1.4372    2.2168    0.0185 O   0  0  0  0  0  0
    3.4434    1.1405    0.0198 O   0  0  0  0  0  0
   -0.4363    2.3523   -0.8663 H   0  0  0  0  0  0
   -0.4348    2.3573    0.9055 H   0  0  0  0  0  0
   -0.5220    0.0207    0.9144 H   0  0  0  0  0  0
   -0.5235    0.0158   -0.8619 H   0  0  0  0  0  0
    1.7370   -0.8913    0.0269 H   0  0  0  0  0  0
  1  2  1  0  0  0
  1  5  1  0  0  0
  1  7  1  0  0  0
  1  8  1  0  0  0
  2  3  1  0  0  0
  2  9  1  0  0  0
  2 10  1  0  0  0
  3  4  1  0  0  0
  3 11  1  0  0  0
  4  5  1  0  0  0
  4  6  2  0  0  0
M  END
> <s_m_entry_name>
Schrodinger_fragment_235

> <i_m_number_of_atoms>
11

> <r_m_molecular_weight>
87.0788

> <s_m_molecular_formula>
C3H5N1O2

> <r_epik_Ionization_Penalty>
  0.0000

> <r_epik_Ionization_Penalty_Charging>
  0.0000

> <r_epik_Ionization_Penalty_Neutral>
  0.0000

> <r_epik_State_Penalty>
  0.0000

> <i_epik_Tot_Q>
0

> <r_epik_Metal_State_Penalty>
  0.0259

> <b_epik_Metal_Only>
0

> <s_m_entry_id>
4602

> <s_canvas_Unique_SMILES_Stereo>
O=C1NCCO1

$$$$
Schrodinger_fragment_180_a
                    3D
 Structure written by MMmdl.
 10 10  0  0  1  0            999 V2000
    0.0464    1.9516    0.0204 C   0  0  0  0  0  0
    0.0351    0.4240    0.0247 C   0  0  0  0  0  0
    1.4273    0.0411    0.0246 N   0  0  0  0  0  0
    2.1300    1.0756    0.0211 C   0  0  0  0  0  0
    1.4351    2.2364    0.0184 O   0  0  0  0  0  0
    3.3543    1.1959    0.0197 O   0  5  0  0  0  0
   -0.4348    2.3635   -0.8679 H   0  0  0  0  0  0
   -0.4333    2.3685    0.9071 H   0  0  0  0  0  0
   -0.4774    0.0376    0.9077 H   0  0  0  0  0  0
   -0.4789    0.0327   -0.8553 H   0  0  0  0  0  0
  1  2  1  0  0  0
  1  5  1  0  0  0
  1  7  1  0  0  0
  1  8  1  0  0  0
  2  3  1  0  0  0
  2  9  1  0  0  0
  2 10  1  0  0  0
  3  4  2  0  0  0
  4  5  1  0  0  0
  4  6  1  0  0  0
M  CHG  1   6  -1
M  END
> <s_m_entry_name>
Schrodinger_fragment_235

> <i_m_number_of_atoms>
11

> <r_m_molecular_weight>
87.0788

> <s_m_molecular_formula>
C3H5N1O2

> <r_epik_Ionization_Penalty>
  5.9347

> <r_epik_Ionization_Penalty_Charging>
  5.9347

> <r_epik_Ionization_Penalty_Neutral>
  0.0000

> <r_epik_State_Penalty>
  5.9347

> <i_epik_Tot_Q>
-1

> <r_epik_Metal_State_Penalty>
  1.8678

> <b_epik_Metal_Only>
1

> <s_m_entry_id>
4603

> <s_canvas_Unique_SMILES_Stereo>
[O-]C1=NCCO1

$$$$
Schrodinger_fragment_181
                    3D
 Structure written by MMmdl.
 10 10  0  0  1  0            999 V2000
    3.7236    2.2141    0.0188 C   0  0  0  0  0  0
    3.5219    0.6941    0.0207 C   0  0  0  0  0  0
    2.0554    2.8938    0.0216 S   0  0  0  0  0  0
    1.3480    1.2993    0.0246 C   0  0  0  0  0  0
    2.2392    0.3137    0.0238 N   0  0  0  0  0  0
    0.1273    1.1195    0.0273 O   0  0  0  0  0  0
    4.4733   -0.0912    0.0196 O   0  0  0  0  0  0
    4.2702    2.5314    0.9062 H   0  0  0  0  0  0
    4.2665    2.5296   -0.8715 H   0  0  0  0  0  0
    1.9656   -0.6553    0.0253 H   0  0  0  0  0  0
  1  2  1  0  0  0
  1  3  1  0  0  0
  1  8  1  0  0  0
  1  9  1  0  0  0
  2  5  1  0  0  0
  2  7  2  0  0  0
  3  4  1  0  0  0
  4  5  1  0  0  0
  4  6  2  0  0  0
  5 10  1  0  0  0
M  END
> <s_m_entry_name>
Schrodinger_fragment_236

> <i_m_number_of_atoms>
10

> <r_m_molecular_weight>
117.12686

> <s_m_molecular_formula>
C3H3N1O2S1

> <r_epik_Ionization_Penalty>
  0.0000

> <r_epik_Ionization_Penalty_Charging>
  0.0000

> <r_epik_Ionization_Penalty_Neutral>
  0.0000

> <r_epik_State_Penalty>
  0.0000

> <i_epik_Tot_Q>
0

> <r_epik_Metal_State_Penalty>
  0.0277

> <b_epik_Metal_Only>
0

> <s_m_entry_id>
4604

> <s_canvas_Unique_SMILES_Stereo>
O=C1CSC(=O)N1

$$$$
Schrodinger_fragment_181_a
                    3D
 Structure written by MMmdl.
  9  9  0  0  1  0            999 V2000
    3.7057    2.2032    0.0189 C   0  0  0  0  0  0
    3.5386    0.6854    0.0207 C   0  0  0  0  0  0
    2.0580    2.9191    0.0215 S   0  0  0  0  0  0
    1.3391    1.2865    0.0246 C   0  0  0  0  0  0
    2.2387    0.3212    0.0237 N   0  5  0  0  0  0
    0.1117    1.1956    0.0272 O   0  0  0  0  0  0
    4.5150   -0.0692    0.0195 O   0  0  0  0  0  0
    4.2563    2.5263    0.9022 H   0  0  0  0  0  0
    4.2527    2.5245   -0.8674 H   0  0  0  0  0  0
  1  2  1  0  0  0
  1  3  1  0  0  0
  1  8  1  0  0  0
  1  9  1  0  0  0
  2  5  1  0  0  0
  2  7  2  0  0  0
  3  4  1  0  0  0
  4  5  1  0  0  0
  4  6  2  0  0  0
M  CHG  1   5  -1
M  END
> <s_m_entry_name>
Schrodinger_fragment_236

> <i_m_number_of_atoms>
10

> <r_m_molecular_weight>
117.12686

> <s_m_molecular_formula>
C3H3N1O2S1

> <r_epik_Ionization_Penalty>
  5.8936

> <r_epik_Ionization_Penalty_Charging>
  5.8936

> <r_epik_Ionization_Penalty_Neutral>
  0.0000

> <r_epik_State_Penalty>
  5.8936

> <i_epik_Tot_Q>
-1

> <r_epik_Metal_State_Penalty>
  1.8285

> <b_epik_Metal_Only>
1

> <s_m_entry_id>
4605

> <s_canvas_Unique_SMILES_Stereo>
O=C1CSC([N-]1)=O

$$$$
Schrodinger_fragment_182
                    3D
 Structure written by MMmdl.
 12 12  0  0  1  0            999 V2000
    0.0084    1.9324    0.0226 C   0  0  0  0  0  0
    0.0070    0.4018    0.0242 C   0  0  0  0  0  0
    1.4252    0.0899    0.0244 N   0  0  0  0  0  0
    2.2048    1.1651    0.0232 C   0  0  0  0  0  0
    1.4272    2.2417    0.0221 N   0  0  0  0  0  0
    3.4333    1.1640    0.0230 O   0  0  0  0  0  0
   -0.4787    2.3399   -0.8647 H   0  0  0  0  0  0
   -0.4785    2.3419    0.9091 H   0  0  0  0  0  0
   -0.4806   -0.0048    0.9116 H   0  0  0  0  0  0
   -0.4808   -0.0067   -0.8622 H   0  0  0  0  0  0
    1.7804   -0.8575    0.0254 H   0  0  0  0  0  0
    1.7841    3.1885    0.0210 H   0  0  0  0  0  0
  1  2  1  0  0  0
  1  5  1  0  0  0
  1  7  1  0  0  0
  1  8  1  0  0  0
  2  3  1  0  0  0
  2  9  1  0  0  0
  2 10  1  0  0  0
  3  4  1  0  0  0
  3 11  1  0  0  0
  4  5  1  0  0  0
  4  6  2  0  0  0
  5 12  1  0  0  0
M  END
> <s_m_entry_name>
Schrodinger_fragment_237

> <i_m_number_of_atoms>
12

> <r_m_molecular_weight>
86.09407

> <s_m_molecular_formula>
C3H6N2O1

> <r_epik_Ionization_Penalty>
  0.0001

> <r_epik_Ionization_Penalty_Charging>
  0.0000

> <r_epik_Ionization_Penalty_Neutral>
  0.0001

> <r_epik_State_Penalty>
  0.0000

> <i_epik_Tot_Q>
0

> <r_epik_Metal_State_Penalty>
  0.0000

> <b_epik_Metal_Only>
0

> <s_m_entry_id>
4606

> <s_canvas_Unique_SMILES_Stereo>
O=C1NCCN1

$$$$
Schrodinger_fragment_183
                    3D
 Structure written by MMmdl.
 18 18  0  0  1  0            999 V2000
    1.9269    0.0100    0.2692 C   0  0  0  0  0  0
    0.4594    0.0922   -0.1400 C   0  0  0  0  0  0
    2.3797   -1.3662   -0.2365 C   0  0  0  0  0  0
   -0.0069   -1.3581   -0.0194 C   0  0  0  0  0  0
    1.2057   -3.5102    0.2398 C   0  0  0  0  0  0
    2.5277    0.8258   -0.1342 H   0  0  0  0  0  0
    2.0076    0.0450    1.3567 H   0  0  0  0  0  0
   -0.1198    0.7755    0.4820 H   0  0  0  0  0  0
    0.3763    0.4270   -1.1751 H   0  0  0  0  0  0
    2.8734   -1.2748   -1.2047 H   0  0  0  0  0  0
    3.0960   -1.8208    0.4497 H   0  0  0  0  0  0
   -0.2766   -1.5638    1.0180 H   0  0  0  0  0  0
   -0.8812   -1.5707   -0.6356 H   0  0  0  0  0  0
    0.2930   -4.0717    0.0395 H   0  0  0  0  0  0
    1.3174   -3.4165    1.3205 H   0  0  0  0  0  0
    2.0453   -4.0934   -0.1390 H   0  0  0  0  0  0
    1.1558   -2.1838   -0.4118 N   0  3  0  0  0  0
    1.0711   -2.3505   -1.4040 H   0  0  0  0  0  0
  1  2  1  0  0  0
  1  3  1  0  0  0
  1  6  1  0  0  0
  1  7  1  0  0  0
  2  4  1  0  0  0
  2  8  1  0  0  0
  2  9  1  0  0  0
  3 10  1  0  0  0
  3 11  1  0  0  0
  3 17  1  0  0  0
  4 12  1  0  0  0
  4 13  1  0  0  0
  4 17  1  0  0  0
  5 14  1  0  0  0
  5 15  1  0  0  0
  5 16  1  0  0  0
  5 17  1  0  0  0
 17 18  1  0  0  0
M  CHG  1  17   1
M  END
> <s_m_entry_name>
Schrodinger_fragment_238

> <i_m_number_of_atoms>
18

> <r_m_molecular_weight>
86.15809

> <s_m_molecular_formula>
C5H12N1

> <r_epik_Ionization_Penalty>
  0.0010

> <r_epik_Ionization_Penalty_Charging>
  0.0010

> <r_epik_Ionization_Penalty_Neutral>
  0.0000

> <r_epik_State_Penalty>
  0.0000

> <i_epik_Tot_Q>
1

> <r_epik_Metal_State_Penalty>
  0.0000

> <b_epik_Metal_Only>
0

> <s_m_entry_id>
4607

> <s_canvas_Unique_SMILES_Stereo>
C[N@H+]1CCCC1

$$$$
Schrodinger_fragment_184
                    3D
 Structure written by MMmdl.
 14 14  0  0  1  0            999 V2000
    0.0172   -1.8769   -0.1133 C   0  0  0  0  0  0
    0.1160   -0.3831   -0.0453 C   0  0  0  0  0  0
    1.4230   -2.2322    0.0411 N   0  0  0  0  0  0
    2.2281   -1.1580    0.1776 C   0  0  0  0  0  0
    1.3797    0.0105    0.1204 C   0  0  0  0  0  0
    3.4528   -1.1861    0.3227 O   0  0  0  0  0  0
    1.8284   -3.6331    0.0367 C   0  0  0  0  0  0
   -0.5939   -2.2724    0.6991 H   0  0  0  0  0  0
   -0.3824   -2.2057   -1.0736 H   0  0  0  0  0  0
   -0.7450    0.2656   -0.1236 H   0  0  0  0  0  0
    1.7208    1.0318    0.1995 H   0  0  0  0  0  0
    2.9059   -3.7502    0.1609 H   0  0  0  0  0  0
    1.5463   -4.1043   -0.9050 H   0  0  0  0  0  0
    1.3370   -4.1703    0.8481 H   0  0  0  0  0  0
  1  2  1  0  0  0
  1  3  1  0  0  0
  1  8  1  0  0  0
  1  9  1  0  0  0
  2  5  2  0  0  0
  2 10  1  0  0  0
  3  4  1  0  0  0
  3  7  1  0  0  0
  4  5  1  0  0  0
  4  6  2  0  0  0
  5 11  1  0  0  0
  7 12  1  0  0  0
  7 13  1  0  0  0
  7 14  1  0  0  0
M  END
> <s_m_entry_name>
Schrodinger_fragment_239

> <i_m_number_of_atoms>
14

> <r_m_molecular_weight>
97.11764

> <s_m_molecular_formula>
C5H7N1O1

> <r_epik_Ionization_Penalty>
  0.0000

> <r_epik_Ionization_Penalty_Charging>
  0.0000

> <r_epik_Ionization_Penalty_Neutral>
  0.0000

> <r_epik_State_Penalty>
  0.0000

> <i_epik_Tot_Q>
0

> <r_epik_Metal_State_Penalty>
  0.0000

> <b_epik_Metal_Only>
0

> <s_m_entry_id>
4608

> <s_canvas_Unique_SMILES_Stereo>
CN1CC=CC1=O

$$$$
Schrodinger_fragment_185
                    3D
 Structure written by MMmdl.
 14 14  0  0  1  0            999 V2000
    0.0646   -0.4977    0.0220 C   0  0  0  0  0  0
    0.0247   -2.0261    0.0275 C   0  0  0  0  0  0
    1.4252   -2.3683    0.0253 N   0  0  0  0  0  0
    2.2518   -1.2629    0.0194 C   0  0  0  0  0  0
    1.4542   -0.1917    0.0175 O   0  0  0  0  0  0
    3.4838   -1.2241    0.0163 O   0  0  0  0  0  0
    1.8800   -3.7541    0.0292 C   0  0  0  0  0  0
   -0.4188   -0.0856   -0.8642 H   0  0  0  0  0  0
   -0.4145   -0.0793    0.9075 H   0  0  0  0  0  0
   -0.4722   -2.4122    0.9183 H   0  0  0  0  0  0
   -0.4765   -2.4185   -0.8580 H   0  0  0  0  0  0
    2.9686   -3.8300    0.0268 H   0  0  0  0  0  0
    1.5060   -4.2770   -0.8515 H   0  0  0  0  0  0
    1.5103   -4.2707    0.9153 H   0  0  0  0  0  0
  1  2  1  0  0  0
  1  5  1  0  0  0
  1  8  1  0  0  0
  1  9  1  0  0  0
  2  3  1  0  0  0
  2 10  1  0  0  0
  2 11  1  0  0  0
  3  4  1  0  0  0
  3  7  1  0  0  0
  4  5  1  0  0  0
  4  6  2  0  0  0
  7 12  1  0  0  0
  7 13  1  0  0  0
  7 14  1  0  0  0
M  END
> <s_m_entry_name>
Schrodinger_fragment_240

> <i_m_number_of_atoms>
14

> <r_m_molecular_weight>
101.10589

> <s_m_molecular_formula>
C4H7N1O2

> <r_epik_Ionization_Penalty>
  0.0000

> <r_epik_Ionization_Penalty_Charging>
  0.0000

> <r_epik_Ionization_Penalty_Neutral>
  0.0000

> <r_epik_State_Penalty>
  0.0000

> <i_epik_Tot_Q>
0

> <r_epik_Metal_State_Penalty>
  0.0000

> <b_epik_Metal_Only>
0

> <s_m_entry_id>
4609

> <s_canvas_Unique_SMILES_Stereo>
O=C1N(C)CCO1

$$$$
Schrodinger_fragment_186
                    3D
 Structure written by MMmdl.
 13 13  0  0  1  0            999 V2000
    3.9222   -0.4937    0.0485 C   0  0  0  0  0  0
    3.6782   -2.0054    0.0745 C   0  0  0  0  0  0
    2.2841    0.2310   -0.0586 S   0  0  0  0  0  0
    1.5272   -1.3396   -0.0590 C   0  0  0  0  0  0
    2.3807   -2.3730    0.0136 N   0  0  0  0  0  0
    0.2977   -1.4546   -0.1221 O   0  0  0  0  0  0
    4.6220   -2.8007    0.1466 O   0  0  0  0  0  0
    1.9672   -3.7811    0.0281 C   0  0  0  0  0  0
    4.4274   -0.1710    0.9579 H   0  0  0  0  0  0
    4.5231   -0.2170   -0.8168 H   0  0  0  0  0  0
    0.8861   -3.9102   -0.0400 H   0  0  0  0  0  0
    2.2968   -4.2642    0.9491 H   0  0  0  0  0  0
    2.4133   -4.3174   -0.8107 H   0  0  0  0  0  0
  1  2  1  0  0  0
  1  3  1  0  0  0
  1  9  1  0  0  0
  1 10  1  0  0  0
  2  5  1  0  0  0
  2  7  2  0  0  0
  3  4  1  0  0  0
  4  5  1  0  0  0
  4  6  2  0  0  0
  5  8  1  0  0  0
  8 11  1  0  0  0
  8 12  1  0  0  0
  8 13  1  0  0  0
M  END
> <s_m_entry_name>
Schrodinger_fragment_241

> <i_m_number_of_atoms>
13

> <r_m_molecular_weight>
131.15395

> <s_m_molecular_formula>
C4H5N1O2S1

> <r_epik_Ionization_Penalty>
  0.0000

> <r_epik_Ionization_Penalty_Charging>
  0.0000

> <r_epik_Ionization_Penalty_Neutral>
  0.0000

> <r_epik_State_Penalty>
  0.0000

> <i_epik_Tot_Q>
0

> <r_epik_Metal_State_Penalty>
  0.0000

> <b_epik_Metal_Only>
0

> <s_m_entry_id>
4610

> <s_canvas_Unique_SMILES_Stereo>
CN1C(=O)SCC1=O

$$$$
Schrodinger_fragment_187
                    3D
 Structure written by MMmdl.
 15 15  0  0  1  0            999 V2000
    0.0497   -0.9279   -0.0967 C   0  0  0  0  0  0
    0.0360   -2.4562   -0.0342 C   0  0  0  0  0  0
    1.4416   -2.7721    0.1292 N   0  0  0  0  0  0
    2.2293   -1.7029    0.1687 C   0  0  0  0  0  0
    1.4621   -0.6109    0.0411 N   0  0  0  0  0  0
    3.4545   -1.7307    0.3008 O   0  0  0  0  0  0
    1.9084    0.7781    0.0307 C   0  0  0  0  0  0
   -0.3411   -0.5593   -1.0464 H   0  0  0  0  0  0
   -0.5294   -0.4856    0.7155 H   0  0  0  0  0  0
   -0.5456   -2.8252    0.8120 H   0  0  0  0  0  0
   -0.3572   -2.8989   -0.9507 H   0  0  0  0  0  0
    1.7890   -3.7181    0.2059 H   0  0  0  0  0  0
    2.9905    0.8618    0.1429 H   0  0  0  0  0  0
    1.4432    1.3306    0.8474 H   0  0  0  0  0  0
    1.6308    1.2572   -0.9085 H   0  0  0  0  0  0
  1  2  1  0  0  0
  1  5  1  0  0  0
  1  8  1  0  0  0
  1  9  1  0  0  0
  2  3  1  0  0  0
  2 10  1  0  0  0
  2 11  1  0  0  0
  3  4  1  0  0  0
  3 12  1  0  0  0
  4  5  1  0  0  0
  4  6  2  0  0  0
  5  7  1  0  0  0
  7 13  1  0  0  0
  7 14  1  0  0  0
  7 15  1  0  0  0
M  END
> <s_m_entry_name>
Schrodinger_fragment_242

> <i_m_number_of_atoms>
15

> <r_m_molecular_weight>
100.12116

> <s_m_molecular_formula>
C4H8N2O1

> <r_epik_Ionization_Penalty>
  0.0001

> <r_epik_Ionization_Penalty_Charging>
  0.0000

> <r_epik_Ionization_Penalty_Neutral>
  0.0001

> <r_epik_State_Penalty>
  0.0000

> <i_epik_Tot_Q>
0

> <r_epik_Metal_State_Penalty>
  0.0000

> <b_epik_Metal_Only>
0

> <s_m_entry_id>
4611

> <s_canvas_Unique_SMILES_Stereo>
O=C1N(C)CCN1

$$$$
Schrodinger_fragment_188
                    3D
 Structure written by MMmdl.
 18 18  0  0  1  0            999 V2000
    0.0562   -3.3189    0.0423 C   0  0  0  0  0  0
    0.0577   -1.7910    0.0082 C   0  0  0  0  0  0
    1.4740   -1.4692   -0.0007 N   0  0  0  0  0  0
    2.2587   -2.5571    0.0226 C   0  0  0  0  0  0
    1.4719   -3.6435    0.0478 N   0  0  0  0  0  0
    3.4951   -2.5584    0.0212 O   0  0  0  0  0  0
    1.9029   -5.0375    0.0784 C   0  0  0  0  0  0
    1.9078   -0.0760   -0.0323 C   0  0  0  0  0  0
   -0.4338   -3.7025    0.9386 H   0  0  0  0  0  0
   -0.4360   -3.7420   -0.8347 H   0  0  0  0  0  0
   -0.4336   -1.4064   -0.8869 H   0  0  0  0  0  0
   -0.4315   -1.3668    0.8865 H   0  0  0  0  0  0
    2.9900   -5.1320    0.0792 H   0  0  0  0  0  0
    1.5215   -5.5702   -0.7930 H   0  0  0  0  0  0
    1.5236   -5.5308    0.9737 H   0  0  0  0  0  0
    2.9951    0.0162   -0.0357 H   0  0  0  0  0  0
    1.5295    0.4574    0.8401 H   0  0  0  0  0  0
    1.5274    0.4180   -0.9267 H   0  0  0  0  0  0
  1  2  1  0  0  0
  1  5  1  0  0  0
  1  9  1  0  0  0
  1 10  1  0  0  0
  2  3  1  0  0  0
  2 11  1  0  0  0
  2 12  1  0  0  0
  3  4  1  0  0  0
  3  8  1  0  0  0
  4  5  1  0  0  0
  4  6  2  0  0  0
  5  7  1  0  0  0
  7 13  1  0  0  0
  7 14  1  0  0  0
  7 15  1  0  0  0
  8 16  1  0  0  0
  8 17  1  0  0  0
  8 18  1  0  0  0
M  END
> <s_m_entry_name>
Schrodinger_fragment_243

> <i_m_number_of_atoms>
18

> <r_m_molecular_weight>
114.14825

> <s_m_molecular_formula>
C5H10N2O1

> <r_epik_Ionization_Penalty>
  0.0001

> <r_epik_Ionization_Penalty_Charging>
  0.0000

> <r_epik_Ionization_Penalty_Neutral>
  0.0001

> <r_epik_State_Penalty>
  0.0000

> <i_epik_Tot_Q>
0

> <r_epik_Metal_State_Penalty>
  0.0000

> <b_epik_Metal_Only>
0

> <s_m_entry_id>
4612

> <s_canvas_Unique_SMILES_Stereo>
O=C1N(C)CCN1C

$$$$
Schrodinger_fragment_189
                    3D
 Structure written by MMmdl.
 11 11  0  0  1  0            999 V2000
    1.1923    1.9559    0.0203 C   0  0  0  0  0  0
    1.0860    0.4451    0.0207 C   0  0  0  0  0  0
    2.5013    0.1125    0.0239 N   0  0  0  0  0  0
    3.2707    1.2034    0.0251 C   0  0  0  0  0  0
    2.4802    2.2742    0.0230 N   0  0  0  0  0  0
    4.5008    1.2128    0.0278 O   0  0  0  0  0  0
    0.2378    2.7370    0.0179 O   0  0  0  0  0  0
    0.5776    0.0820    0.9143 H   0  0  0  0  0  0
    0.5815    0.0813   -0.8748 H   0  0  0  0  0  0
    2.8561   -0.8337    0.0250 H   0  0  0  0  0  0
    2.8239    3.2210    0.0234 H   0  0  0  0  0  0
  1  2  1  0  0  0
  1  5  1  0  0  0
  1  7  2  0  0  0
  2  3  1  0  0  0
  2  8  1  0  0  0
  2  9  1  0  0  0
  3  4  1  0  0  0
  3 10  1  0  0  0
  4  5  1  0  0  0
  4  6  2  0  0  0
  5 11  1  0  0  0
M  END
> <s_m_entry_name>
Schrodinger_fragment_244

> <i_m_number_of_atoms>
11

> <r_m_molecular_weight>
100.07753

> <s_m_molecular_formula>
C3H4N2O2

> <r_epik_Ionization_Penalty>
  0.0059

> <r_epik_Ionization_Penalty_Charging>
  0.0000

> <r_epik_Ionization_Penalty_Neutral>
  0.0059

> <r_epik_State_Penalty>
  0.0000

> <i_epik_Tot_Q>
0

> <r_epik_Metal_State_Penalty>
  0.4091

> <b_epik_Metal_Only>
0

> <s_m_entry_id>
4613

> <s_canvas_Unique_SMILES_Stereo>
O=C1CNC(=O)N1

$$$$
Schrodinger_fragment_189_a
                    3D
 Structure written by MMmdl.
 10 10  0  0  1  0            999 V2000
    1.2017    1.9707    0.0203 C   0  0  0  0  0  0
    1.1123    0.4548    0.0208 C   0  0  0  0  0  0
    2.5131    0.0591    0.0240 N   0  0  0  0  0  0
    3.2253    1.1295    0.0251 C   0  0  0  0  0  0
    2.4868    2.2753    0.0230 N   0  0  0  0  0  0
    4.4309    1.3864    0.0276 O   0  5  0  0  0  0
    0.2512    2.7518    0.0180 O   0  0  0  0  0  0
    0.5871    0.0987    0.9085 H   0  0  0  0  0  0
    0.5909    0.0980   -0.8690 H   0  0  0  0  0  0
    2.8713    3.2108    0.0235 H   0  0  0  0  0  0
  1  2  1  0  0  0
  1  5  1  0  0  0
  1  7  2  0  0  0
  2  3  1  0  0  0
  2  8  1  0  0  0
  2  9  1  0  0  0
  3  4  2  0  0  0
  4  5  1  0  0  0
  4  6  1  0  0  0
  5 10  1  0  0  0
M  CHG  1   6  -1
M  END
> <s_m_entry_name>
Schrodinger_fragment_244

> <i_m_number_of_atoms>
11

> <r_m_molecular_weight>
100.07753

> <s_m_molecular_formula>
C3H4N2O2

> <r_epik_Ionization_Penalty>
  6.0027

> <r_epik_Ionization_Penalty_Charging>
  6.0027

> <r_epik_Ionization_Penalty_Neutral>
  0.0000

> <r_epik_State_Penalty>
  6.0027

> <i_epik_Tot_Q>
-1

> <r_epik_Metal_State_Penalty>
  2.3190

> <b_epik_Metal_Only>
1

> <s_m_entry_id>
4614

> <s_canvas_Unique_SMILES_Stereo>
O=C1CN=C([O-])N1

$$$$
Schrodinger_fragment_189_b
                    3D
 Structure written by MMmdl.
 10 10  0  0  1  0            999 V2000
    1.1962    1.9725    0.0203 C   0  0  0  0  0  0
    1.1052    0.4516    0.0207 C   0  0  0  0  0  0
    2.5085    0.0992    0.0239 N   0  0  0  0  0  0
    3.2599    1.1875    0.0251 C   0  0  0  0  0  0
    2.5029    2.2954    0.0230 N   0  5  0  0  0  0
    4.4853    1.1275    0.0278 O   0  0  0  0  0  0
    0.2126    2.7143    0.0179 O   0  0  0  0  0  0
    0.5966    0.0819    0.9121 H   0  0  0  0  0  0
    0.6005    0.0812   -0.8726 H   0  0  0  0  0  0
    2.8510   -0.8526    0.0250 H   0  0  0  0  0  0
  1  2  1  0  0  0
  1  5  1  0  0  0
  1  7  2  0  0  0
  2  3  1  0  0  0
  2  8  1  0  0  0
  2  9  1  0  0  0
  3  4  1  0  0  0
  3 10  1  0  0  0
  4  5  1  0  0  0
  4  6  2  0  0  0
M  CHG  1   5  -1
M  END
> <s_m_entry_name>
Schrodinger_fragment_244

> <i_m_number_of_atoms>
11

> <r_m_molecular_weight>
100.07753

> <s_m_molecular_formula>
C3H4N2O2

> <r_epik_Ionization_Penalty>
  2.7344

> <r_epik_Ionization_Penalty_Charging>
  2.7344

> <r_epik_Ionization_Penalty_Neutral>
  0.0000

> <r_epik_State_Penalty>
  2.7285

> <i_epik_Tot_Q>
-1

> <r_epik_Metal_State_Penalty>
  0.4365

> <b_epik_Metal_Only>
1

> <s_m_entry_id>
4615

> <s_canvas_Unique_SMILES_Stereo>
O=C1CNC([N-]1)=O

$$$$
Schrodinger_fragment_190
                    3D
 Structure written by MMmdl.
 14 14  0  0  1  0            999 V2000
    1.3753   -0.9123   -0.0630 C   0  0  0  0  0  0
    1.2823   -2.4224   -0.0275 C   0  0  0  0  0  0
    2.6920   -2.7415    0.0908 N   0  0  0  0  0  0
    3.4544   -1.6466    0.1188 C   0  0  0  0  0  0
    2.6632   -0.5642    0.0267 N   0  0  0  0  0  0
    4.6832   -1.6509    0.2144 O   0  0  0  0  0  0
    0.4044   -0.1539   -0.1594 O   0  0  0  0  0  0
    3.1308    0.8236    0.0242 C   0  0  0  0  0  0
    0.7109   -2.7647    0.8356 H   0  0  0  0  0  0
    0.8491   -2.8153   -0.9475 H   0  0  0  0  0  0
    3.0518   -3.6835    0.1455 H   0  0  0  0  0  0
    4.2170    0.8973    0.0944 H   0  0  0  0  0  0
    2.7062    1.3688    0.8681 H   0  0  0  0  0  0
    2.8233    1.3268   -0.8934 H   0  0  0  0  0  0
  1  2  1  0  0  0
  1  5  1  0  0  0
  1  7  2  0  0  0
  2  3  1  0  0  0
  2  9  1  0  0  0
  2 10  1  0  0  0
  3  4  1  0  0  0
  3 11  1  0  0  0
  4  5  1  0  0  0
  4  6  2  0  0  0
  5  8  1  0  0  0
  8 12  1  0  0  0
  8 13  1  0  0  0
  8 14  1  0  0  0
M  END
> <s_m_entry_name>
Schrodinger_fragment_245

> <i_m_number_of_atoms>
14

> <r_m_molecular_weight>
114.10462

> <s_m_molecular_formula>
C4H6N2O2

> <r_epik_Ionization_Penalty>
  0.0000

> <r_epik_Ionization_Penalty_Charging>
  0.0000

> <r_epik_Ionization_Penalty_Neutral>
  0.0000

> <r_epik_State_Penalty>
  0.0000

> <i_epik_Tot_Q>
0

> <r_epik_Metal_State_Penalty>
  0.0231

> <b_epik_Metal_Only>
0

> <s_m_entry_id>
4616

> <s_canvas_Unique_SMILES_Stereo>
CN1C(=O)NCC1=O

$$$$
Schrodinger_fragment_190_a
                    3D
 Structure written by MMmdl.
 13 13  0  0  1  0            999 V2000
    1.3702   -0.9138   -0.2000 C   0  0  0  0  0  0
    1.3123   -2.4240   -0.0622 C   0  0  0  0  0  0
    2.6841   -2.7689    0.2688 N   0  0  0  0  0  0
    3.3745   -1.6839    0.3101 C   0  0  0  0  0  0
    2.6266   -0.5466    0.0352 N   0  0  0  0  0  0
    4.5653   -1.4451    0.5439 O   0  5  0  0  0  0
    0.4123   -0.1896   -0.4793 O   0  0  0  0  0  0
    3.1530    0.8261    0.0124 C   0  0  0  0  0  0
    0.6194   -2.7115    0.7300 H   0  0  0  0  0  0
    0.9933   -2.8836   -0.9989 H   0  0  0  0  0  0
    3.9398    0.9234   -0.7368 H   0  0  0  0  0  0
    3.5686    1.0944    0.9845 H   0  0  0  0  0  0
    2.3780    1.5555   -0.2272 H   0  0  0  0  0  0
  1  2  1  0  0  0
  1  5  1  0  0  0
  1  7  2  0  0  0
  2  3  1  0  0  0
  2  9  1  0  0  0
  2 10  1  0  0  0
  3  4  2  0  0  0
  4  5  1  0  0  0
  4  6  1  0  0  0
  5  8  1  0  0  0
  8 11  1  0  0  0
  8 12  1  0  0  0
  8 13  1  0  0  0
M  CHG  1   6  -1
M  END
> <s_m_entry_name>
Schrodinger_fragment_245

> <i_m_number_of_atoms>
14

> <r_m_molecular_weight>
114.10462

> <s_m_molecular_formula>
C4H6N2O2

> <r_epik_Ionization_Penalty>
  6.0027

> <r_epik_Ionization_Penalty_Charging>
  6.0027

> <r_epik_Ionization_Penalty_Neutral>
  0.0000

> <r_epik_State_Penalty>
  6.0027

> <i_epik_Tot_Q>
-1

> <r_epik_Metal_State_Penalty>
  1.9331

> <b_epik_Metal_Only>
1

> <s_m_entry_id>
4617

> <s_canvas_Unique_SMILES_Stereo>
CN1C([O-])=NCC1=O

$$$$
Schrodinger_fragment_191
                    3D
 Structure written by MMmdl.
 17 17  0  0  1  0            999 V2000
    1.3854   -1.7902   -0.0566 C   0  0  0  0  0  0
    1.3038   -3.3003   -0.0481 C   0  0  0  0  0  0
    2.7173   -3.6210    0.0379 N   0  0  0  0  0  0
    3.4734   -2.5089    0.0728 C   0  0  0  0  0  0
    2.6705   -1.4324    0.0157 N   0  0  0  0  0  0
    4.7061   -2.4879    0.1458 O   0  0  0  0  0  0
    0.4068   -1.0371   -0.1205 O   0  0  0  0  0  0
    3.1241   -0.0394    0.0307 C   0  0  0  0  0  0
    3.1747   -5.0074    0.0775 C   0  0  0  0  0  0
    0.7481   -3.6592    0.8182 H   0  0  0  0  0  0
    0.8532   -3.6749   -0.9673 H   0  0  0  0  0  0
    4.2107    0.0456    0.0803 H   0  0  0  0  0  0
    2.7113    0.4855    0.8933 H   0  0  0  0  0  0
    2.7930    0.4784   -0.8706 H   0  0  0  0  0  0
    4.2621   -5.0802    0.1365 H   0  0  0  0  0  0
    2.8527   -5.5390   -0.8186 H   0  0  0  0  0  0
    2.7581   -5.5198    0.9455 H   0  0  0  0  0  0
  1  2  1  0  0  0
  1  5  1  0  0  0
  1  7  2  0  0  0
  2  3  1  0  0  0
  2 10  1  0  0  0
  2 11  1  0  0  0
  3  4  1  0  0  0
  3  9  1  0  0  0
  4  5  1  0  0  0
  4  6  2  0  0  0
  5  8  1  0  0  0
  8 12  1  0  0  0
  8 13  1  0  0  0
  8 14  1  0  0  0
  9 15  1  0  0  0
  9 16  1  0  0  0
  9 17  1  0  0  0
M  END
> <s_m_entry_name>
Schrodinger_fragment_246

> <i_m_number_of_atoms>
17

> <r_m_molecular_weight>
128.13171

> <s_m_molecular_formula>
C5H8N2O2

> <r_epik_Ionization_Penalty>
  0.0000

> <r_epik_Ionization_Penalty_Charging>
  0.0000

> <r_epik_Ionization_Penalty_Neutral>
  0.0000

> <r_epik_State_Penalty>
  0.0000

> <i_epik_Tot_Q>
0

> <r_epik_Metal_State_Penalty>
  0.0000

> <b_epik_Metal_Only>
0

> <s_m_entry_id>
4618

> <s_canvas_Unique_SMILES_Stereo>
CN1C(=O)N(C)CC1=O

$$$$
Schrodinger_fragment_192
                    3D
 Structure written by MMmdl.
 14 14  0  0  1  0            999 V2000
    1.3933   -1.7741    0.0225 C   0  0  0  0  0  0
    1.3000   -3.2848    0.0251 C   0  0  0  0  0  0
    2.7177   -3.6145    0.0258 N   0  0  0  0  0  0
    3.4786   -2.5051    0.0239 C   0  0  0  0  0  0
    2.6767   -1.4431    0.0220 N   0  0  0  0  0  0
    4.7106   -2.4676    0.0239 O   0  0  0  0  0  0
    0.4315   -1.0007    0.0211 O   0  0  0  0  0  0
    3.1719   -5.0016    0.0282 C   0  0  0  0  0  0
    0.7938   -3.6472    0.9200 H   0  0  0  0  0  0
    0.7939   -3.6503   -0.8686 H   0  0  0  0  0  0
    3.0116   -0.4940    0.0203 H   0  0  0  0  0  0
    4.2607   -5.0763    0.0284 H   0  0  0  0  0  0
    2.8008   -5.5237   -0.8544 H   0  0  0  0  0  0
    2.8007   -5.5206    0.9126 H   0  0  0  0  0  0
  1  2  1  0  0  0
  1  5  1  0  0  0
  1  7  2  0  0  0
  2  3  1  0  0  0
  2  9  1  0  0  0
  2 10  1  0  0  0
  3  4  1  0  0  0
  3  8  1  0  0  0
  4  5  1  0  0  0
  4  6  2  0  0  0
  5 11  1  0  0  0
  8 12  1  0  0  0
  8 13  1  0  0  0
  8 14  1  0  0  0
M  END
> <s_m_entry_name>
Schrodinger_fragment_247

> <i_m_number_of_atoms>
14

> <r_m_molecular_weight>
114.10462

> <s_m_molecular_formula>
C4H6N2O2

> <r_epik_Ionization_Penalty>
  0.0059

> <r_epik_Ionization_Penalty_Charging>
  0.0000

> <r_epik_Ionization_Penalty_Neutral>
  0.0059

> <r_epik_State_Penalty>
  0.0000

> <i_epik_Tot_Q>
0

> <r_epik_Metal_State_Penalty>
  1.4207

> <b_epik_Metal_Only>
0

> <s_m_entry_id>
4619

> <s_canvas_Unique_SMILES_Stereo>
N1C(=O)N(C)CC1=O

$$$$
Schrodinger_fragment_192_a
                    3D
 Structure written by MMmdl.
 13 13  0  0  1  0            999 V2000
    1.3936   -1.7573    0.0225 C   0  0  0  0  0  0
    1.3225   -3.2764    0.0251 C   0  0  0  0  0  0
    2.7283   -3.6218    0.0258 N   0  0  0  0  0  0
    3.4703   -2.5083    0.0239 C   0  0  0  0  0  0
    2.6928   -1.4121    0.0219 N   0  5  0  0  0  0
    4.7025   -2.5204    0.0240 O   0  0  0  0  0  0
    0.3970   -1.0328    0.0211 O   0  0  0  0  0  0
    3.1683   -5.0146    0.0282 C   0  0  0  0  0  0
    0.8183   -3.6479    0.9181 H   0  0  0  0  0  0
    0.8184   -3.6510   -0.8666 H   0  0  0  0  0  0
    4.2559   -5.0989    0.0284 H   0  0  0  0  0  0
    2.7915   -5.5311   -0.8548 H   0  0  0  0  0  0
    2.7914   -5.5280    0.9130 H   0  0  0  0  0  0
  1  2  1  0  0  0
  1  5  1  0  0  0
  1  7  2  0  0  0
  2  3  1  0  0  0
  2  9  1  0  0  0
  2 10  1  0  0  0
  3  4  1  0  0  0
  3  8  1  0  0  0
  4  5  1  0  0  0
  4  6  2  0  0  0
  8 11  1  0  0  0
  8 12  1  0  0  0
  8 13  1  0  0  0
M  CHG  1   5  -1
M  END
> <s_m_entry_name>
Schrodinger_fragment_247

> <i_m_number_of_atoms>
14

> <r_m_molecular_weight>
114.10462

> <s_m_molecular_formula>
C4H6N2O2

> <r_epik_Ionization_Penalty>
  2.7344

> <r_epik_Ionization_Penalty_Charging>
  2.7344

> <r_epik_Ionization_Penalty_Neutral>
  0.0000

> <r_epik_State_Penalty>
  2.7285

> <i_epik_Tot_Q>
-1

> <r_epik_Metal_State_Penalty>
  0.0565

> <b_epik_Metal_Only>
1

> <s_m_entry_id>
4620

> <s_canvas_Unique_SMILES_Stereo>
[N-]1C(=O)N(C)CC1=O

$$$$
Schrodinger_fragment_193
                    3D
 Structure written by MMmdl.
 16 16  0  0  1  0            999 V2000
    2.4936    2.1414   -0.2108 C   0  0  0  0  0  0
    2.4323    0.6824    0.2695 C   0  0  0  0  0  0
    1.2414    0.0640   -0.2151 O   0  0  0  0  0  0
    0.0524    0.6803    0.2770 C   0  0  0  0  0  0
   -0.0145    2.1392   -0.2029 C   0  0  0  0  0  0
    1.2403    2.9069    0.2312 C   0  0  0  0  0  0
    3.3894    2.6275    0.1781 H   0  0  0  0  0  0
    2.5766    2.1641   -1.2983 H   0  0  0  0  0  0
    3.2960    0.1297   -0.1017 H   0  0  0  0  0  0
    2.4675    0.6295    1.3591 H   0  0  0  0  0  0
   -0.8126    0.1261   -0.0887 H   0  0  0  0  0  0
    0.0242    0.6274    1.3668 H   0  0  0  0  0  0
   -0.1043    2.1617   -1.2899 H   0  0  0  0  0  0
   -0.9087    2.6237    0.1915 H   0  0  0  0  0  0
    1.2435    3.0208    1.3163 H   0  0  0  0  0  0
    1.2380    3.9131   -0.1894 H   0  0  0  0  0  0
  1  2  1  0  0  0
  1  6  1  0  0  0
  1  7  1  0  0  0
  1  8  1  0  0  0
  2  3  1  0  0  0
  2  9  1  0  0  0
  2 10  1  0  0  0
  3  4  1  0  0  0
  4  5  1  0  0  0
  4 11  1  0  0  0
  4 12  1  0  0  0
  5  6  1  0  0  0
  5 13  1  0  0  0
  5 14  1  0  0  0
  6 15  1  0  0  0
  6 16  1  0  0  0
M  END
> <s_m_entry_name>
Schrodinger_fragment_248

> <i_m_number_of_atoms>
16

> <r_m_molecular_weight>
86.13485

> <s_m_molecular_formula>
C5H10O1

> <r_epik_Ionization_Penalty>
  0.0000

> <r_epik_Ionization_Penalty_Charging>
  0.0000

> <r_epik_Ionization_Penalty_Neutral>
  0.0000

> <r_epik_State_Penalty>
  0.0000

> <i_epik_Tot_Q>
0

> <r_epik_Metal_State_Penalty>
  0.0000

> <b_epik_Metal_Only>
0

> <s_m_entry_id>
4621

> <s_canvas_Unique_SMILES_Stereo>
C1CCOCC1

$$$$
Schrodinger_fragment_194
                    3D
 Structure written by MMmdl.
 14 14  0  0  1  0            999 V2000
    0.0659    2.1697    0.2592 C   0  0  0  0  0  0
    0.0623    0.7036   -0.2168 C   0  0  0  0  0  0
    1.2348    0.0459    0.2593 O   0  0  0  0  0  0
    2.4152    0.6953   -0.2089 C   0  0  0  0  0  0
    2.4188    2.1614    0.2669 C   0  0  0  0  0  0
    1.2462    2.8191   -0.2090 O   0  0  0  0  0  0
   -0.8088    2.6935   -0.1275 H   0  0  0  0  0  0
    0.0127    2.2224    1.3479 H   0  0  0  0  0  0
   -0.8186    0.1860    0.1640 H   0  0  0  0  0  0
    0.0160    0.6513   -1.3059 H   0  0  0  0  0  0
    3.2898    0.1715    0.1779 H   0  0  0  0  0  0
    2.4685    0.6425   -1.2976 H   0  0  0  0  0  0
    2.4653    2.2139    1.3560 H   0  0  0  0  0  0
    3.2997    2.6790   -0.1141 H   0  0  0  0  0  0
  1  2  1  0  0  0
  1  6  1  0  0  0
  1  7  1  0  0  0
  1  8  1  0  0  0
  2  3  1  0  0  0
  2  9  1  0  0  0
  2 10  1  0  0  0
  3  4  1  0  0  0
  4  5  1  0  0  0
  4 11  1  0  0  0
  4 12  1  0  0  0
  5  6  1  0  0  0
  5 13  1  0  0  0
  5 14  1  0  0  0
M  END
> <s_m_entry_name>
Schrodinger_fragment_249

> <i_m_number_of_atoms>
14

> <r_m_molecular_weight>
88.10716

> <s_m_molecular_formula>
C4H8O2

> <r_epik_Ionization_Penalty>
  0.0000

> <r_epik_Ionization_Penalty_Charging>
  0.0000

> <r_epik_Ionization_Penalty_Neutral>
  0.0000

> <r_epik_State_Penalty>
  0.0000

> <i_epik_Tot_Q>
0

> <r_epik_Metal_State_Penalty>
  0.0000

> <b_epik_Metal_Only>
0

> <s_m_entry_id>
4622

> <s_canvas_Unique_SMILES_Stereo>
C1COCCO1

$$$$
Schrodinger_fragment_195
                    3D
 Structure written by MMmdl.
 11 11  0  0  1  0            999 V2000
    3.6679    2.1134    0.0240 C   0  0  0  0  0  0
    3.6285    0.7714    0.0216 C   0  0  0  0  0  0
    2.4492    0.0554    0.0197 O   0  0  0  0  0  0
    1.2196    0.6834    0.0201 C   0  0  0  0  0  0
    1.2506    2.1665    0.0227 C   0  0  0  0  0  0
    2.4186    2.8334    0.0246 C   0  0  0  0  0  0
    0.1660    0.0436    0.0184 O   0  0  0  0  0  0
    4.6130    2.6398    0.0255 H   0  0  0  0  0  0
    4.4998    0.1318    0.0209 H   0  0  0  0  0  0
    0.3094    2.6959    0.0231 H   0  0  0  0  0  0
    2.4198    3.9143    0.0265 H   0  0  0  0  0  0
  1  2  2  0  0  0
  1  6  1  0  0  0
  1  8  1  0  0  0
  2  3  1  0  0  0
  2  9  1  0  0  0
  3  4  1  0  0  0
  4  5  1  0  0  0
  4  7  2  0  0  0
  5  6  2  0  0  0
  5 10  1  0  0  0
  6 11  1  0  0  0
M  END
> <s_m_entry_name>
Schrodinger_fragment_250

> <i_m_number_of_atoms>
11

> <r_m_molecular_weight>
96.08643

> <s_m_molecular_formula>
C5H4O2

> <r_epik_Ionization_Penalty>
  0.0000

> <r_epik_Ionization_Penalty_Charging>
  0.0000

> <r_epik_Ionization_Penalty_Neutral>
  0.0000

> <r_epik_State_Penalty>
  0.0000

> <i_epik_Tot_Q>
0

> <r_epik_Metal_State_Penalty>
  0.0000

> <b_epik_Metal_Only>
0

> <s_m_entry_id>
4623

> <s_canvas_Unique_SMILES_Stereo>
O=c1cccco1

$$$$
Schrodinger_fragment_196
                    3D
 Structure written by MMmdl.
 14 14  0  0  1  0            999 V2000
   -0.0631    2.1762    0.0211 C   0  0  0  0  0  0
    0.0781    0.6782    0.0190 C   0  0  0  0  0  0
    1.2180    0.0599    0.0217 N   0  3  0  0  0  0
    2.4843    0.7256    0.0271 C   0  0  0  0  0  0
    2.5228    2.0699    0.0295 C   0  0  0  0  0  0
    1.2839    2.9443    0.0269 C   0  0  0  0  0  0
   -0.6490    2.4659   -0.8514 H   0  0  0  0  0  0
   -0.8155    0.0644    0.0150 H   0  0  0  0  0  0
    1.2211   -0.9588    0.0199 H   0  0  0  0  0  0
    3.3584    0.0886    0.0288 H   0  0  0  0  0  0
    3.4775    2.5772    0.0336 H   0  0  0  0  0  0
    1.3322    3.5993   -0.8434 H   0  0  0  0  0  0
    1.3264    3.5962    0.8999 H   0  0  0  0  0  0
   -0.6547    2.4628    0.8908 H   0  0  0  0  0  0
  1  2  1  0  0  0
  1  6  1  0  0  0
  1  7  1  0  0  0
  1 14  1  0  0  0
  2  3  2  0  0  0
  2  8  1  0  0  0
  3  4  1  0  0  0
  3  9  1  0  0  0
  4  5  2  0  0  0
  4 10  1  0  0  0
  5  6  1  0  0  0
  5 11  1  0  0  0
  6 12  1  0  0  0
  6 13  1  0  0  0
M  CHG  1   3   1
M  END
> <s_m_entry_name>
Schrodinger_fragment_251

> <i_m_number_of_atoms>
13

> <r_m_molecular_weight>
81.11824

> <s_m_molecular_formula>
C5H7N1

> <r_epik_Ionization_Penalty>
  0.0011

> <r_epik_Ionization_Penalty_Charging>
  0.0001

> <r_epik_Ionization_Penalty_Neutral>
  0.0011

> <r_epik_State_Penalty>
  0.0000

> <i_epik_Tot_Q>
1

> <r_epik_Metal_State_Penalty>
  0.0000

> <b_epik_Metal_Only>
0

> <s_m_entry_id>
4624

> <s_canvas_Unique_SMILES_Stereo>
C1=C[NH+]=CCC1

$$$$
Schrodinger_fragment_197
                    3D
 Structure written by MMmdl.
 12 12  0  0  1  0            999 V2000
    1.2438    2.1378    0.0199 C   0  0  0  0  0  0
    1.2098    0.6718    0.0177 C   0  0  0  0  0  0
    2.4204    0.0707    0.0214 N   0  0  0  0  0  0
    3.6419    0.7582    0.0270 C   0  0  0  0  0  0
    3.6747    2.1016    0.0289 C   0  0  0  0  0  0
    2.4135    2.8145    0.0252 C   0  0  0  0  0  0
    0.1716    0.0096    0.0129 O   0  0  0  0  0  0
    0.3110    2.6827    0.0171 H   0  0  0  0  0  0
    2.4525   -0.9400    0.0202 H   0  0  0  0  0  0
    4.5181    0.1239    0.0294 H   0  0  0  0  0  0
    4.6162    2.6354    0.0332 H   0  0  0  0  0  0
    2.4080    3.8954    0.0267 H   0  0  0  0  0  0
  1  2  1  0  0  0
  1  6  2  0  0  0
  1  8  1  0  0  0
  2  3  1  0  0  0
  2  7  2  0  0  0
  3  4  1  0  0  0
  3  9  1  0  0  0
  4  5  2  0  0  0
  4 10  1  0  0  0
  5  6  1  0  0  0
  5 11  1  0  0  0
  6 12  1  0  0  0
M  END
> <s_m_entry_name>
Schrodinger_fragment_252

> <i_m_number_of_atoms>
12

> <r_m_molecular_weight>
95.1017

> <s_m_molecular_formula>
C5H5N1O1

> <r_epik_Ionization_Penalty>
  0.0000

> <r_epik_Ionization_Penalty_Charging>
  0.0000

> <r_epik_Ionization_Penalty_Neutral>
  0.0000

> <r_epik_State_Penalty>
  0.0000

> <i_epik_Tot_Q>
0

> <r_epik_Metal_State_Penalty>
  0.0259

> <b_epik_Metal_Only>
0

> <s_m_entry_id>
4625

> <s_canvas_Unique_SMILES_Stereo>
O=c1cccc[nH]1

$$$$
Schrodinger_fragment_197_a
                    3D
 Structure written by MMmdl.
 11 11  0  0  1  0            999 V2000
    1.2304    2.1386    0.0198 C   0  0  0  0  0  0
    1.2793    0.7412    0.0181 C   0  0  0  0  0  0
    2.4193    0.0407    0.0214 N   0  0  0  0  0  0
    3.5915    0.7234    0.0267 C   0  0  0  0  0  0
    3.6459    2.1257    0.0289 C   0  0  0  0  0  0
    2.4426    2.8540    0.0254 C   0  0  0  0  0  0
    0.1569   -0.0177    0.0128 O   0  5  0  0  0  0
    0.2859    2.6704    0.0170 H   0  0  0  0  0  0
    4.4978    0.1356    0.0293 H   0  0  0  0  0  0
    4.5995    2.6374    0.0332 H   0  0  0  0  0  0
    2.4486    3.9345    0.0269 H   0  0  0  0  0  0
  1  2  1  0  0  0
  1  6  2  0  0  0
  1  8  1  0  0  0
  2  3  2  0  0  0
  2  7  1  0  0  0
  3  4  1  0  0  0
  4  5  2  0  0  0
  4  9  1  0  0  0
  5  6  1  0  0  0
  5 10  1  0  0  0
  6 11  1  0  0  0
M  CHG  1   7  -1
M  END
> <s_m_entry_name>
Schrodinger_fragment_252

> <i_m_number_of_atoms>
12

> <r_m_molecular_weight>
95.1017

> <s_m_molecular_formula>
C5H5N1O1

> <r_epik_Ionization_Penalty>
  6.0973

> <r_epik_Ionization_Penalty_Charging>
  0.1628

> <r_epik_Ionization_Penalty_Neutral>
  5.9345

> <r_epik_State_Penalty>
  5.9345

> <i_epik_Tot_Q>
-1

> <r_epik_Metal_State_Penalty>
  1.8676

> <b_epik_Metal_Only>
1

> <s_m_entry_id>
4626

> <s_canvas_Unique_SMILES_Stereo>
[O-]c1ccccn1

$$$$
Schrodinger_fragment_198
                    3D
 Structure written by MMmdl.
 17 17  0  0  1  0            999 V2000
    2.5554   -0.6468   -0.0091 C   0  0  0  0  0  0
    2.4089   -2.1276   -0.2280 C   0  0  0  0  0  0
    1.3061   -2.7820    0.0008 N   0  3  0  0  0  0
    0.0788   -2.1005    0.3230 C   0  0  0  0  0  0
    0.0261   -0.7557    0.3025 C   0  0  0  0  0  0
    1.2096    0.1055   -0.0825 C   0  0  0  0  0  0
    1.2703   -4.2590   -0.0422 C   0  0  0  0  0  0
    3.0177   -0.4975    0.9668 H   0  0  0  0  0  0
    3.2850   -2.6895   -0.5308 H   0  0  0  0  0  0
   -0.7744   -2.7278    0.5444 H   0  0  0  0  0  0
   -0.9058   -0.2494    0.5114 H   0  0  0  0  0  0
    1.2444    0.9876    0.5572 H   0  0  0  0  0  0
    1.0402    0.4633   -1.0985 H   0  0  0  0  0  0
    0.5588   -4.5630   -0.8098 H   0  0  0  0  0  0
    0.9446   -4.6234    0.9319 H   0  0  0  0  0  0
    2.2565   -4.6621   -0.2738 H   0  0  0  0  0  0
    3.2484   -0.2396   -0.7455 H   0  0  0  0  0  0
  1  2  1  0  0  0
  1  6  1  0  0  0
  1  8  1  0  0  0
  1 17  1  0  0  0
  2  3  2  0  0  0
  2  9  1  0  0  0
  3  4  1  0  0  0
  3  7  1  0  0  0
  4  5  2  0  0  0
  4 10  1  0  0  0
  5  6  1  0  0  0
  5 11  1  0  0  0
  6 12  1  0  0  0
  6 13  1  0  0  0
  7 14  1  0  0  0
  7 15  1  0  0  0
  7 16  1  0  0  0
M  CHG  1   3   1
M  END
> <s_m_entry_name>
Schrodinger_fragment_254

> <i_m_number_of_atoms>
16

> <r_m_molecular_weight>
95.14533

> <s_m_molecular_formula>
C6H9N1

> <r_epik_Ionization_Penalty>
  0.0011

> <r_epik_Ionization_Penalty_Charging>
  0.0000

> <r_epik_Ionization_Penalty_Neutral>
  0.0011

> <r_epik_State_Penalty>
  0.0000

> <i_epik_Tot_Q>
1

> <r_epik_Metal_State_Penalty>
  0.0000

> <b_epik_Metal_Only>
0

> <s_m_entry_id>
4627

> <s_canvas_Unique_SMILES_Stereo>
C[N+]1=CCCC=C1

$$$$
Schrodinger_fragment_199
                    3D
 Structure written by MMmdl.
 15 15  0  0  1  0            999 V2000
    1.4466   -0.6775    0.1397 C   0  0  0  0  0  0
    1.3988   -2.1432    0.1468 C   0  0  0  0  0  0
    2.6058   -2.7742    0.0277 N   0  0  0  0  0  0
    3.8196   -2.0683   -0.0943 C   0  0  0  0  0  0
    3.8583   -0.7257   -0.1002 C   0  0  0  0  0  0
    2.6112   -0.0065    0.0228 C   0  0  0  0  0  0
    0.3375   -2.7675    0.2534 O   0  0  0  0  0  0
    2.6647   -4.2378    0.0241 C   0  0  0  0  0  0
    0.5222   -0.1271    0.2309 H   0  0  0  0  0  0
    4.7057   -2.6813   -0.1815 H   0  0  0  0  0  0
    4.7976   -0.1964   -0.1945 H   0  0  0  0  0  0
    2.6110    1.0748    0.0211 H   0  0  0  0  0  0
    3.6803   -4.6207   -0.0764 H   0  0  0  0  0  0
    2.0800   -4.6404   -0.8040 H   0  0  0  0  0  0
    2.2549   -4.6377    0.9525 H   0  0  0  0  0  0
  1  2  1  0  0  0
  1  6  2  0  0  0
  1  9  1  0  0  0
  2  3  1  0  0  0
  2  7  2  0  0  0
  3  4  1  0  0  0
  3  8  1  0  0  0
  4  5  2  0  0  0
  4 10  1  0  0  0
  5  6  1  0  0  0
  5 11  1  0  0  0
  6 12  1  0  0  0
  8 13  1  0  0  0
  8 14  1  0  0  0
  8 15  1  0  0  0
M  END
> <s_m_entry_name>
Schrodinger_fragment_255

> <i_m_number_of_atoms>
15

> <r_m_molecular_weight>
109.12879

> <s_m_molecular_formula>
C6H7N1O1

> <r_epik_Ionization_Penalty>
  0.0000

> <r_epik_Ionization_Penalty_Charging>
  0.0000

> <r_epik_Ionization_Penalty_Neutral>
  0.0000

> <r_epik_State_Penalty>
  0.0000

> <i_epik_Tot_Q>
0

> <r_epik_Metal_State_Penalty>
  0.0000

> <b_epik_Metal_Only>
0

> <s_m_entry_id>
4628

> <s_canvas_Unique_SMILES_Stereo>
Cn1ccccc1=O

$$$$
Schrodinger_fragment_200
                    3D
 Structure written by MMmdl.
 12 12  0  0  1  0            999 V2000
    2.4951    2.1345    0.0177 C   0  0  0  0  0  0
    2.4394    0.7851    0.0231 C   0  0  0  0  0  0
    1.2475    0.0702    0.0288 N   0  0  0  0  0  0
    0.0500    0.7758    0.0289 C   0  0  0  0  0  0
   -0.0162    2.1247    0.0238 C   0  0  0  0  0  0
    1.2364    2.9136    0.0177 C   0  0  0  0  0  0
    1.2315    4.1470    0.0129 O   0  0  0  0  0  0
    3.4371    2.6634    0.0134 H   0  0  0  0  0  0
    3.3291    0.1694    0.0234 H   0  0  0  0  0  0
    1.2515   -0.9490    0.0327 H   0  0  0  0  0  0
   -0.8347    0.1531    0.0334 H   0  0  0  0  0  0
   -0.9623    2.6462    0.0241 H   0  0  0  0  0  0
  1  2  2  0  0  0
  1  6  1  0  0  0
  1  8  1  0  0  0
  2  3  1  0  0  0
  2  9  1  0  0  0
  3  4  1  0  0  0
  3 10  1  0  0  0
  4  5  2  0  0  0
  4 11  1  0  0  0
  5  6  1  0  0  0
  5 12  1  0  0  0
  6  7  2  0  0  0
M  END
> <s_m_entry_name>
Schrodinger_fragment_256

> <i_m_number_of_atoms>
12

> <r_m_molecular_weight>
95.1017

> <s_m_molecular_formula>
C5H5N1O1

> <r_epik_Ionization_Penalty>
  0.0006

> <r_epik_Ionization_Penalty_Charging>
  0.0006

> <r_epik_Ionization_Penalty_Neutral>
  0.0000

> <r_epik_State_Penalty>
  0.0000

> <i_epik_Tot_Q>
0

> <r_epik_Metal_State_Penalty>
  0.0433

> <b_epik_Metal_Only>
0

> <s_m_entry_id>
4629

> <s_canvas_Unique_SMILES_Stereo>
O=c1cc[nH]cc1

$$$$
Schrodinger_fragment_200_a
                    3D
 Structure written by MMmdl.
 11 11  0  0  1  0            999 V2000
    2.4431    2.1647    0.0177 C   0  0  0  0  0  0
    2.4011    0.7551    0.0233 C   0  0  0  0  0  0
    1.2457    0.0534    0.0288 N   0  0  0  0  0  0
    0.0856    0.7474    0.0289 C   0  0  0  0  0  0
    0.0343    2.1568    0.0236 C   0  0  0  0  0  0
    1.2363    2.8760    0.0179 C   0  0  0  0  0  0
    1.2318    4.2367    0.0126 O   0  5  0  0  0  0
    3.4034    2.6662    0.0135 H   0  0  0  0  0  0
    3.3150    0.1793    0.0234 H   0  0  0  0  0  0
   -0.8244    0.1656    0.0334 H   0  0  0  0  0  0
   -0.9293    2.6519    0.0240 H   0  0  0  0  0  0
  1  2  2  0  0  0
  1  6  1  0  0  0
  1  8  1  0  0  0
  2  3  1  0  0  0
  2  9  1  0  0  0
  3  4  2  0  0  0
  4  5  1  0  0  0
  4 10  1  0  0  0
  5  6  2  0  0  0
  5 11  1  0  0  0
  6  7  1  0  0  0
M  CHG  1   7  -1
M  END
> <s_m_entry_name>
Schrodinger_fragment_256

> <i_m_number_of_atoms>
12

> <r_m_molecular_weight>
95.1017

> <s_m_molecular_formula>
C5H5N1O1

> <r_epik_Ionization_Penalty>
  5.6208

> <r_epik_Ionization_Penalty_Charging>
  0.0000

> <r_epik_Ionization_Penalty_Neutral>
  5.6208

> <r_epik_State_Penalty>
  5.6207

> <i_epik_Tot_Q>
-1

> <r_epik_Metal_State_Penalty>
  1.5713

> <b_epik_Metal_Only>
1

> <s_m_entry_id>
4630

> <s_canvas_Unique_SMILES_Stereo>
[O-]c1ccncc1

$$$$
Schrodinger_fragment_201
                    3D
 Structure written by MMmdl.
 15 15  0  0  1  0            999 V2000
    0.0174   -2.2399    0.0939 C   0  0  0  0  0  0
    0.0850   -3.5881    0.0919 C   0  0  0  0  0  0
    1.2744   -4.3108    0.0245 N   0  0  0  0  0  0
    2.4597   -3.5800   -0.0447 C   0  0  0  0  0  0
    2.5171   -2.2313   -0.0499 C   0  0  0  0  0  0
    1.2645   -1.4517    0.0211 C   0  0  0  0  0  0
    1.2601   -0.2185    0.0197 O   0  0  0  0  0  0
    1.2667   -5.7675    0.0283 C   0  0  0  0  0  0
   -0.9276   -1.7197    0.1475 H   0  0  0  0  0  0
   -0.8078   -4.1973    0.1442 H   0  0  0  0  0  0
    3.3587   -4.1796   -0.0954 H   0  0  0  0  0  0
    3.4583   -1.7043   -0.1048 H   0  0  0  0  0  0
    2.2743   -6.1789   -0.0403 H   0  0  0  0  0  0
    0.6917   -6.1491   -0.8160 H   0  0  0  0  0  0
    0.8131   -6.1447    0.9454 H   0  0  0  0  0  0
  1  2  2  0  0  0
  1  6  1  0  0  0
  1  9  1  0  0  0
  2  3  1  0  0  0
  2 10  1  0  0  0
  3  4  1  0  0  0
  3  8  1  0  0  0
  4  5  2  0  0  0
  4 11  1  0  0  0
  5  6  1  0  0  0
  5 12  1  0  0  0
  6  7  2  0  0  0
  8 13  1  0  0  0
  8 14  1  0  0  0
  8 15  1  0  0  0
M  END
> <s_m_entry_name>
Schrodinger_fragment_257

> <i_m_number_of_atoms>
15

> <r_m_molecular_weight>
109.12879

> <s_m_molecular_formula>
C6H7N1O1

> <r_epik_Ionization_Penalty>
  0.0012

> <r_epik_Ionization_Penalty_Charging>
  0.0012

> <r_epik_Ionization_Penalty_Neutral>
  0.0000

> <r_epik_State_Penalty>
  0.0000

> <i_epik_Tot_Q>
0

> <r_epik_Metal_State_Penalty>
  0.0000

> <b_epik_Metal_Only>
0

> <s_m_entry_id>
4631

> <s_canvas_Unique_SMILES_Stereo>
c1cn(C)ccc1=O

$$$$
Schrodinger_fragment_202
                    3D
 Structure written by MMmdl.
 16 16  0  0  1  0            999 V2000
    1.1653    2.2018    0.1506 C   0  0  0  0  0  0
    1.1866    0.6694    0.0551 C   0  0  0  0  0  0
    2.3664    0.0344    0.0027 N   0  0  0  0  0  0
    3.6859    0.6590   -0.1136 C   0  0  0  0  0  0
    3.6892    2.1324    0.3244 C   0  0  0  0  0  0
    2.4862    2.8650   -0.2784 C   0  0  0  0  0  0
    0.1284    0.0425    0.0621 O   0  0  0  0  0  0
    0.3399    2.5922   -0.4457 H   0  0  0  0  0  0
    0.9477    2.4612    1.1873 H   0  0  0  0  0  0
    2.3426   -0.9771   -0.0269 H   0  0  0  0  0  0
    4.4104    0.0899    0.4704 H   0  0  0  0  0  0
    4.0018    0.5851   -1.1554 H   0  0  0  0  0  0
    3.6508    2.1958    1.4132 H   0  0  0  0  0  0
    4.6213    2.6116    0.0211 H   0  0  0  0  0  0
    2.5614    2.8617   -1.3668 H   0  0  0  0  0  0
    2.4926    3.9113    0.0285 H   0  0  0  0  0  0
  1  2  1  0  0  0
  1  6  1  0  0  0
  1  8  1  0  0  0
  1  9  1  0  0  0
  2  3  1  0  0  0
  2  7  2  0  0  0
  3  4  1  0  0  0
  3 10  1  0  0  0
  4  5  1  0  0  0
  4 11  1  0  0  0
  4 12  1  0  0  0
  5  6  1  0  0  0
  5 13  1  0  0  0
  5 14  1  0  0  0
  6 15  1  0  0  0
  6 16  1  0  0  0
M  END
> <s_m_entry_name>
Schrodinger_fragment_258

> <i_m_number_of_atoms>
16

> <r_m_molecular_weight>
99.13358

> <s_m_molecular_formula>
C5H9N1O1

> <r_epik_Ionization_Penalty>
  0.0000

> <r_epik_Ionization_Penalty_Charging>
  0.0000

> <r_epik_Ionization_Penalty_Neutral>
  0.0000

> <r_epik_State_Penalty>
  0.0000

> <i_epik_Tot_Q>
0

> <r_epik_Metal_State_Penalty>
  0.0000

> <b_epik_Metal_Only>
0

> <s_m_entry_id>
4632

> <s_canvas_Unique_SMILES_Stereo>
O=C1CCCCN1

$$$$
Schrodinger_fragment_203
                    3D
 Structure written by MMmdl.
 19 19  0  0  1  0            999 V2000
    1.3705   -0.6193   -0.0771 C   0  0  0  0  0  0
    1.3850   -2.1530    0.0100 C   0  0  0  0  0  0
    2.5718   -2.8073    0.0397 N   0  0  0  0  0  0
    3.8867   -2.1519    0.1315 C   0  0  0  0  0  0
    3.8761   -0.6757   -0.2922 C   0  0  0  0  0  0
    2.6894    0.0429    0.3477 C   0  0  0  0  0  0
    0.3029   -2.7478    0.0171 O   0  0  0  0  0  0
    2.6086   -4.2711    0.0739 C   0  0  0  0  0  0
    1.1479   -0.3557   -1.1114 H   0  0  0  0  0  0
    0.5487   -0.2309    0.5251 H   0  0  0  0  0  0
    4.2246   -2.2287    1.1662 H   0  0  0  0  0  0
    4.6184   -2.6892   -0.4738 H   0  0  0  0  0  0
    4.8136   -0.1963   -0.0063 H   0  0  0  0  0  0
    3.8105   -0.6012   -1.3791 H   0  0  0  0  0  0
    2.6869    1.0945    0.0587 H   0  0  0  0  0  0
    2.7827    0.0204    1.4346 H   0  0  0  0  0  0
    3.6218   -4.6592    0.1829 H   0  0  0  0  0  0
    2.1926   -4.6840   -0.8461 H   0  0  0  0  0  0
    2.0234   -4.6535    0.9117 H   0  0  0  0  0  0
  1  2  1  0  0  0
  1  6  1  0  0  0
  1  9  1  0  0  0
  1 10  1  0  0  0
  2  3  1  0  0  0
  2  7  2  0  0  0
  3  4  1  0  0  0
  3  8  1  0  0  0
  4  5  1  0  0  0
  4 11  1  0  0  0
  4 12  1  0  0  0
  5  6  1  0  0  0
  5 13  1  0  0  0
  5 14  1  0  0  0
  6 15  1  0  0  0
  6 16  1  0  0  0
  8 17  1  0  0  0
  8 18  1  0  0  0
  8 19  1  0  0  0
M  END
> <s_m_entry_name>
Schrodinger_fragment_259

> <i_m_number_of_atoms>
19

> <r_m_molecular_weight>
113.16067

> <s_m_molecular_formula>
C6H11N1O1

> <r_epik_Ionization_Penalty>
  0.0000

> <r_epik_Ionization_Penalty_Charging>
  0.0000

> <r_epik_Ionization_Penalty_Neutral>
  0.0000

> <r_epik_State_Penalty>
  0.0000

> <i_epik_Tot_Q>
0

> <r_epik_Metal_State_Penalty>
  0.0000

> <b_epik_Metal_Only>
0

> <s_m_entry_id>
4633

> <s_canvas_Unique_SMILES_Stereo>
CN1CCCCC1=O

$$$$
Schrodinger_fragment_204
                    3D
 Structure written by MMmdl.
 15 15  0  0  1  0            999 V2000
    3.7195    2.1658    0.2219 C   0  0  0  0  0  0
    3.6446    0.6419    0.0525 C   0  0  0  0  0  0
    2.4449    0.0422   -0.0082 N   0  0  0  0  0  0
    1.2480    0.6477    0.0521 C   0  0  0  0  0  0
    1.1805    2.1718    0.2221 C   0  0  0  0  0  0
    2.4516    2.8581   -0.3024 C   0  0  0  0  0  0
    0.2007    0.0006   -0.0159 O   0  0  0  0  0  0
    4.6888   -0.0103   -0.0152 O   0  0  0  0  0  0
    3.8533    2.3810    1.2825 H   0  0  0  0  0  0
    4.6012    2.5509   -0.2917 H   0  0  0  0  0  0
    2.4425   -0.9594   -0.1151 H   0  0  0  0  0  0
    0.3005    2.5613   -0.2910 H   0  0  0  0  0  0
    1.0481    2.3874    1.2829 H   0  0  0  0  0  0
    2.4541    3.9092   -0.0134 H   0  0  0  0  0  0
    2.4515    2.8397   -1.3935 H   0  0  0  0  0  0
  1  2  1  0  0  0
  1  6  1  0  0  0
  1  9  1  0  0  0
  1 10  1  0  0  0
  2  3  1  0  0  0
  2  8  2  0  0  0
  3  4  1  0  0  0
  3 11  1  0  0  0
  4  5  1  0  0  0
  4  7  2  0  0  0
  5  6  1  0  0  0
  5 12  1  0  0  0
  5 13  1  0  0  0
  6 14  1  0  0  0
  6 15  1  0  0  0
M  END
> <s_m_entry_name>
Schrodinger_fragment_260

> <i_m_number_of_atoms>
15

> <r_m_molecular_weight>
113.11704

> <s_m_molecular_formula>
C5H7N1O2

> <r_epik_Ionization_Penalty>
  0.0000

> <r_epik_Ionization_Penalty_Charging>
  0.0000

> <r_epik_Ionization_Penalty_Neutral>
  0.0000

> <r_epik_State_Penalty>
  0.0000

> <i_epik_Tot_Q>
0

> <r_epik_Metal_State_Penalty>
  0.0000

> <b_epik_Metal_Only>
0

> <s_m_entry_id>
4634

> <s_canvas_Unique_SMILES_Stereo>
O=C1CCCC(=O)N1

$$$$
Schrodinger_fragment_205
                    3D
 Structure written by MMmdl.
 18 18  0  0  1  0            999 V2000
    3.9040   -0.6427    0.2091 C   0  0  0  0  0  0
    3.8328   -2.1703    0.0772 C   0  0  0  0  0  0
    2.6294   -2.8047    0.0220 N   0  0  0  0  0  0
    1.4361   -2.1486    0.0659 C   0  0  0  0  0  0
    1.3957   -0.6198    0.2011 C   0  0  0  0  0  0
    2.6578    0.0376   -0.3603 C   0  0  0  0  0  0
    0.3500   -2.7370    0.0122 O   0  0  0  0  0  0
    4.9042   -2.7870    0.0344 O   0  0  0  0  0  0
    2.6502   -4.2767   -0.0968 C   0  0  0  0  0  0
    4.0164   -0.4005    1.2663 H   0  0  0  0  0  0
    4.7975   -0.2728   -0.2949 H   0  0  0  0  0  0
    0.5124   -0.2305   -0.3064 H   0  0  0  0  0  0
    1.2827   -0.3777    1.2583 H   0  0  0  0  0  0
    2.6668    1.1007   -0.1192 H   0  0  0  0  0  0
    2.6606   -0.0342   -1.4494 H   0  0  0  0  0  0
    1.6672   -4.7473   -0.1350 H   0  0  0  0  0  0
    3.1737   -4.7201    0.7520 H   0  0  0  0  0  0
    3.1747   -4.5779   -1.0052 H   0  0  0  0  0  0
  1  2  1  0  0  0
  1  6  1  0  0  0
  1 10  1  0  0  0
  1 11  1  0  0  0
  2  3  1  0  0  0
  2  8  2  0  0  0
  3  4  1  0  0  0
  3  9  1  0  0  0
  4  5  1  0  0  0
  4  7  2  0  0  0
  5  6  1  0  0  0
  5 12  1  0  0  0
  5 13  1  0  0  0
  6 14  1  0  0  0
  6 15  1  0  0  0
  9 16  1  0  0  0
  9 17  1  0  0  0
  9 18  1  0  0  0
M  END
> <s_m_entry_name>
Schrodinger_fragment_261

> <i_m_number_of_atoms>
18

> <r_m_molecular_weight>
127.14413

> <s_m_molecular_formula>
C6H9N1O2

> <r_epik_Ionization_Penalty>
  0.0000

> <r_epik_Ionization_Penalty_Charging>
  0.0000

> <r_epik_Ionization_Penalty_Neutral>
  0.0000

> <r_epik_State_Penalty>
  0.0000

> <i_epik_Tot_Q>
0

> <r_epik_Metal_State_Penalty>
  0.0000

> <b_epik_Metal_Only>
0

> <s_m_entry_id>
4635

> <s_canvas_Unique_SMILES_Stereo>
CN1C(=O)CCCC1=O

$$$$
Schrodinger_fragment_206
                    3D
 Structure written by MMmdl.
 11 11  0  0  1  0            999 V2000
    0.0927    2.1458    0.0179 N   0  0  0  0  0  0
    0.0944    0.7486    0.0240 C   0  0  0  0  0  0
    1.2090    0.0814    0.0294 N   0  0  0  0  0  0
    2.4153    0.7902    0.0290 C   0  0  0  0  0  0
    2.4576    2.1410    0.0232 C   0  0  0  0  0  0
    1.2099    2.9018    0.0171 C   0  0  0  0  0  0
    1.1507    4.1332    0.0116 O   0  0  0  0  0  0
   -0.7972    2.6214    0.0139 H   0  0  0  0  0  0
   -0.8955    0.2883    0.0238 H   0  0  0  0  0  0
    3.3220    0.2006    0.0336 H   0  0  0  0  0  0
    3.4054    2.6599    0.0231 H   0  0  0  0  0  0
  1  2  1  0  0  0
  1  6  1  0  0  0
  1  8  1  0  0  0
  2  3  2  0  0  0
  2  9  1  0  0  0
  3  4  1  0  0  0
  4  5  2  0  0  0
  4 10  1  0  0  0
  5  6  1  0  0  0
  5 11  1  0  0  0
  6  7  2  0  0  0
M  END
> <s_m_entry_name>
Schrodinger_fragment_262

> <i_m_number_of_atoms>
11

> <r_m_molecular_weight>
96.08928

> <s_m_molecular_formula>
C4H4N2O1

> <r_epik_Ionization_Penalty>
  0.0089

> <r_epik_Ionization_Penalty_Charging>
  0.0089

> <r_epik_Ionization_Penalty_Neutral>
  0.0000

> <r_epik_State_Penalty>
  0.0810

> <i_epik_Tot_Q>
0

> <r_epik_Metal_State_Penalty>
  0.4349

> <b_epik_Metal_Only>
0

> <s_m_entry_id>
4636

> <s_canvas_Unique_SMILES_Stereo>
O=c1ccnc[nH]1

$$$$
Schrodinger_fragment_206_a
                    3D
 Structure written by MMmdl.
 11 11  0  0  1  0            999 V2000
    0.0068    2.1128    0.0179 N   0  0  0  0  0  0
    0.0684    0.8118    0.0237 C   0  0  0  0  0  0
    1.2481    0.0832    0.0295 N   0  0  0  0  0  0
    2.4392    0.7842    0.0291 C   0  0  0  0  0  0
    2.4645    2.1298    0.0233 C   0  0  0  0  0  0
    1.1947    2.8658    0.0172 C   0  0  0  0  0  0
    1.1716    4.0947    0.0118 O   0  0  0  0  0  0
    1.2707   -0.9351    0.0340 H   0  0  0  0  0  0
   -0.8362    0.1999    0.0243 H   0  0  0  0  0  0
    3.3315    0.1726    0.0337 H   0  0  0  0  0  0
    3.4041    2.6646    0.0230 H   0  0  0  0  0  0
  1  2  2  0  0  0
  1  6  1  0  0  0
  2  3  1  0  0  0
  2  9  1  0  0  0
  3  4  1  0  0  0
  3  8  1  0  0  0
  4  5  2  0  0  0
  4 10  1  0  0  0
  5  6  1  0  0  0
  5 11  1  0  0  0
  6  7  2  0  0  0
M  END
> <s_m_entry_name>
Schrodinger_fragment_262

> <i_m_number_of_atoms>
11

> <r_m_molecular_weight>
96.08928

> <s_m_molecular_formula>
C4H4N2O1

> <r_epik_Ionization_Penalty>
  0.0324

> <r_epik_Ionization_Penalty_Charging>
  0.0324

> <r_epik_Ionization_Penalty_Neutral>
  0.0000

> <r_epik_State_Penalty>
  1.2839

> <i_epik_Tot_Q>
0

> <r_epik_Metal_State_Penalty>
  1.6379

> <b_epik_Metal_Only>
0

> <s_m_entry_id>
4637

> <s_canvas_Unique_SMILES_Stereo>
O=c1cc[nH]cn1

$$$$
Schrodinger_fragment_206_b
                    3D
 Structure written by MMmdl.
 10 10  0  0  1  0            999 V2000
    0.0745    2.1472    0.0179 N   0  0  0  0  0  0
    0.1249    0.8125    0.0238 C   0  0  0  0  0  0
    1.2322    0.0871    0.0294 N   0  0  0  0  0  0
    2.4054    0.7486    0.0292 C   0  0  0  0  0  0
    2.4488    2.1496    0.0232 C   0  0  0  0  0  0
    1.2294    2.8090    0.0176 C   0  0  0  0  0  0
    1.1206    4.1598    0.0114 O   0  5  0  0  0  0
   -0.8156    0.2839    0.0240 H   0  0  0  0  0  0
    3.3093    0.1577    0.0337 H   0  0  0  0  0  0
    3.3974    2.6750    0.0230 H   0  0  0  0  0  0
  1  2  1  0  0  0
  1  6  2  0  0  0
  2  3  2  0  0  0
  2  8  1  0  0  0
  3  4  1  0  0  0
  4  5  2  0  0  0
  4  9  1  0  0  0
  5  6  1  0  0  0
  5 10  1  0  0  0
  6  7  1  0  0  0
M  CHG  1   7  -1
M  END
> <s_m_entry_name>
Schrodinger_fragment_262

> <i_m_number_of_atoms>
11

> <r_m_molecular_weight>
96.08928

> <s_m_molecular_formula>
C4H4N2O1

> <r_epik_Ionization_Penalty>
  4.2296

> <r_epik_Ionization_Penalty_Charging>
  0.0000

> <r_epik_Ionization_Penalty_Neutral>
  4.2296

> <r_epik_State_Penalty>
  2.5639

> <i_epik_Tot_Q>
-1

> <r_epik_Metal_State_Penalty>
  0.4639

> <b_epik_Metal_Only>
0

> <s_m_entry_id>
4638

> <s_canvas_Unique_SMILES_Stereo>
[O-]c1ccncn1

$$$$
Schrodinger_fragment_207
                    3D
 Structure written by MMmdl.
 14 14  0  0  1  0            999 V2000
    0.6375   -2.1710    0.0218 N   0  0  0  0  0  0
    0.6390   -3.5697   -0.1414 C   0  0  0  0  0  0
    1.7409   -4.2559   -0.1672 N   0  0  0  0  0  0
    2.9539   -3.5801   -0.0284 C   0  0  0  0  0  0
    3.0170   -2.2418    0.1310 C   0  0  0  0  0  0
    1.7882   -1.4518    0.1626 C   0  0  0  0  0  0
    1.7932   -0.2243    0.3061 O   0  0  0  0  0  0
   -0.6875   -1.5387    0.0302 C   0  0  0  0  0  0
   -0.3482   -4.0252   -0.2434 H   0  0  0  0  0  0
    3.8501   -4.1852   -0.0548 H   0  0  0  0  0  0
    3.9729   -1.7495    0.2356 H   0  0  0  0  0  0
   -0.6553   -0.4561    0.1582 H   0  0  0  0  0  0
   -1.2959   -1.9377    0.8433 H   0  0  0  0  0  0
   -1.2095   -1.7332   -0.9079 H   0  0  0  0  0  0
  1  2  1  0  0  0
  1  6  1  0  0  0
  1  8  1  0  0  0
  2  3  2  0  0  0
  2  9  1  0  0  0
  3  4  1  0  0  0
  4  5  2  0  0  0
  4 10  1  0  0  0
  5  6  1  0  0  0
  5 11  1  0  0  0
  6  7  2  0  0  0
  8 12  1  0  0  0
  8 13  1  0  0  0
  8 14  1  0  0  0
M  END
> <s_m_entry_name>
Schrodinger_fragment_264

> <i_m_number_of_atoms>
14

> <r_m_molecular_weight>
110.11637

> <s_m_molecular_formula>
C5H6N2O1

> <r_epik_Ionization_Penalty>
  0.0000

> <r_epik_Ionization_Penalty_Charging>
  0.0000

> <r_epik_Ionization_Penalty_Neutral>
  0.0000

> <r_epik_State_Penalty>
  0.0000

> <i_epik_Tot_Q>
0

> <r_epik_Metal_State_Penalty>
  0.0000

> <b_epik_Metal_Only>
0

> <s_m_entry_id>
4639

> <s_canvas_Unique_SMILES_Stereo>
Cn1cnccc1=O

$$$$
Schrodinger_fragment_208
                    3D
 Structure written by MMmdl.
 11 11  0  0  1  0            999 V2000
    1.2577    2.1305    0.0231 N   0  0  0  0  0  0
    1.2385    0.7255    0.0182 C   0  0  0  0  0  0
    2.4265    0.0754    0.0179 N   0  0  0  0  0  0
    3.6545    0.7424    0.0222 C   0  0  0  0  0  0
    3.6818    2.0837    0.0268 C   0  0  0  0  0  0
    2.3767    2.7656    0.0271 C   0  0  0  0  0  0
    0.1957    0.0784    0.0143 O   0  0  0  0  0  0
    2.4358   -0.9393    0.0145 H   0  0  0  0  0  0
    4.5286    0.1056    0.0214 H   0  0  0  0  0  0
    4.5809    2.6834    0.0303 H   0  0  0  0  0  0
    2.4215    3.8577    0.0309 H   0  0  0  0  0  0
  1  2  1  0  0  0
  1  6  2  0  0  0
  2  3  1  0  0  0
  2  7  2  0  0  0
  3  4  1  0  0  0
  3  8  1  0  0  0
  4  5  2  0  0  0
  4  9  1  0  0  0
  5  6  1  0  0  0
  5 10  1  0  0  0
  6 11  1  0  0  0
M  END
> <s_m_entry_name>
Schrodinger_fragment_265

> <i_m_number_of_atoms>
11

> <r_m_molecular_weight>
96.08928

> <s_m_molecular_formula>
C4H4N2O1

> <r_epik_Ionization_Penalty>
  0.0049

> <r_epik_Ionization_Penalty_Charging>
  0.0049

> <r_epik_Ionization_Penalty_Neutral>
  0.0000

> <r_epik_State_Penalty>
  0.0000

> <i_epik_Tot_Q>
0

> <r_epik_Metal_State_Penalty>
  0.3803

> <b_epik_Metal_Only>
0

> <s_m_entry_id>
4640

> <s_canvas_Unique_SMILES_Stereo>
O=c1nccc[nH]1

$$$$
Schrodinger_fragment_208_a
                    3D
 Structure written by MMmdl.
 10 10  0  0  1  0            999 V2000
    1.2571    2.0955    0.0230 N   0  0  0  0  0  0
    1.3379    0.7865    0.0186 C   0  0  0  0  0  0
    2.4290    0.0589    0.0179 N   0  0  0  0  0  0
    3.6089    0.7186    0.0220 C   0  0  0  0  0  0
    3.6476    2.1156    0.0269 C   0  0  0  0  0  0
    2.4204    2.7841    0.0272 C   0  0  0  0  0  0
    0.1867    0.1240    0.0145 O   0  5  0  0  0  0
    4.5127    0.1274    0.0215 H   0  0  0  0  0  0
    4.5857    2.6554    0.0303 H   0  0  0  0  0  0
    2.3634    3.8625    0.0308 H   0  0  0  0  0  0
  1  2  1  0  0  0
  1  6  2  0  0  0
  2  3  2  0  0  0
  2  7  1  0  0  0
  3  4  1  0  0  0
  4  5  2  0  0  0
  4  8  1  0  0  0
  5  6  1  0  0  0
  5  9  1  0  0  0
  6 10  1  0  0  0
M  CHG  1   7  -1
M  END
> <s_m_entry_name>
Schrodinger_fragment_265

> <i_m_number_of_atoms>
11

> <r_m_molecular_weight>
96.08928

> <s_m_molecular_formula>
C4H4N2O1

> <r_epik_Ionization_Penalty>
  5.7035

> <r_epik_Ionization_Penalty_Charging>
  0.0184

> <r_epik_Ionization_Penalty_Neutral>
  5.6851

> <r_epik_State_Penalty>
  2.8376

> <i_epik_Tot_Q>
-1

> <r_epik_Metal_State_Penalty>
  0.4427

> <b_epik_Metal_Only>
1

> <s_m_entry_id>
4641

> <s_canvas_Unique_SMILES_Stereo>
[O-]c1ncccn1

$$$$
Schrodinger_fragment_209
                    3D
 Structure written by MMmdl.
 14 14  0  0  1  0            999 V2000
    1.4587   -0.6818    0.0230 N   0  0  0  0  0  0
    1.4254   -2.0863    0.0238 C   0  0  0  0  0  0
    2.6128   -2.7670    0.0253 N   0  0  0  0  0  0
    3.8404   -2.0849    0.0260 C   0  0  0  0  0  0
    3.8757   -0.7451    0.0252 C   0  0  0  0  0  0
    2.5798   -0.0566    0.0236 C   0  0  0  0  0  0
    0.3564   -2.6954    0.0232 O   0  0  0  0  0  0
    2.6361   -4.2318    0.0262 C   0  0  0  0  0  0
    4.7275   -2.7024    0.0271 H   0  0  0  0  0  0
    4.7787   -0.1518    0.0256 H   0  0  0  0  0  0
    2.6323    1.0353    0.0230 H   0  0  0  0  0  0
    3.6482   -4.6387    0.0274 H   0  0  0  0  0  0
    2.1289   -4.6244   -0.8568 H   0  0  0  0  0  0
    2.1272   -4.6233    0.9087 H   0  0  0  0  0  0
  1  2  1  0  0  0
  1  6  2  0  0  0
  2  3  1  0  0  0
  2  7  2  0  0  0
  3  4  1  0  0  0
  3  8  1  0  0  0
  4  5  2  0  0  0
  4  9  1  0  0  0
  5  6  1  0  0  0
  5 10  1  0  0  0
  6 11  1  0  0  0
  8 12  1  0  0  0
  8 13  1  0  0  0
  8 14  1  0  0  0
M  END
> <s_m_entry_name>
Schrodinger_fragment_266

> <i_m_number_of_atoms>
14

> <r_m_molecular_weight>
110.11637

> <s_m_molecular_formula>
C5H6N2O1

> <r_epik_Ionization_Penalty>
  0.0000

> <r_epik_Ionization_Penalty_Charging>
  0.0000

> <r_epik_Ionization_Penalty_Neutral>
  0.0000

> <r_epik_State_Penalty>
  0.0000

> <i_epik_Tot_Q>
0

> <r_epik_Metal_State_Penalty>
  0.0000

> <b_epik_Metal_Only>
0

> <s_m_entry_id>
4642

> <s_canvas_Unique_SMILES_Stereo>
Cn1cccnc1=O

$$$$
Schrodinger_fragment_210
                    3D
 Structure written by MMmdl.
 15 15  0  0  1  0            999 V2000
    0.0367    2.1294    0.3653 C   0  0  0  0  0  0
    1.2813    2.8582   -0.1556 C   0  0  0  0  0  0
    2.4775    2.0309    0.0084 N   0  0  0  0  0  0
    2.5256    0.6911    0.0166 C   0  0  0  0  0  0
    1.3406    0.0641    0.0062 N   0  0  0  0  0  0
    0.0269    0.6880   -0.1580 C   0  0  0  0  0  0
    3.5876    0.0769    0.0788 O   0  0  0  0  0  0
    0.0487    2.1212    1.4566 H   0  0  0  0  0  0
   -0.8729    2.6555    0.0713 H   0  0  0  0  0  0
    1.1640    3.0865   -1.2159 H   0  0  0  0  0  0
    1.4146    3.8088    0.3620 H   0  0  0  0  0  0
    3.3648    2.5156    0.0515 H   0  0  0  0  0  0
    1.3634   -0.9468    0.0476 H   0  0  0  0  0  0
   -0.7308    0.0972    0.3578 H   0  0  0  0  0  0
   -0.2285    0.6775   -1.2187 H   0  0  0  0  0  0
  1  2  1  0  0  0
  1  6  1  0  0  0
  1  8  1  0  0  0
  1  9  1  0  0  0
  2  3  1  0  0  0
  2 10  1  0  0  0
  2 11  1  0  0  0
  3  4  1  0  0  0
  3 12  1  0  0  0
  4  5  1  0  0  0
  4  7  2  0  0  0
  5  6  1  0  0  0
  5 13  1  0  0  0
  6 14  1  0  0  0
  6 15  1  0  0  0
M  END
> <s_m_entry_name>
Schrodinger_fragment_267

> <i_m_number_of_atoms>
15

> <r_m_molecular_weight>
100.12116

> <s_m_molecular_formula>
C4H8N2O1

> <r_epik_Ionization_Penalty>
  0.0001

> <r_epik_Ionization_Penalty_Charging>
  0.0000

> <r_epik_Ionization_Penalty_Neutral>
  0.0001

> <r_epik_State_Penalty>
  0.0000

> <i_epik_Tot_Q>
0

> <r_epik_Metal_State_Penalty>
  0.0000

> <b_epik_Metal_Only>
0

> <s_m_entry_id>
4643

> <s_canvas_Unique_SMILES_Stereo>
O=C1NCCCN1

$$$$
Schrodinger_fragment_211
                    3D
 Structure written by MMmdl.
 18 18  0  0  1  0            999 V2000
    0.0659   -0.7153   -0.3470 C   0  0  0  0  0  0
    0.0391   -2.1364    0.2181 C   0  0  0  0  0  0
    1.3527   -2.7623    0.0914 N   0  0  0  0  0  0
    2.5434   -2.1442    0.0819 C   0  0  0  0  0  0
    2.5164   -0.7864    0.0745 N   0  0  0  0  0  0
    1.2946    0.0260    0.1909 C   0  0  0  0  0  0
    3.5881   -2.7982    0.0424 O   0  0  0  0  0  0
    3.7662   -0.0240    0.0202 C   0  0  0  0  0  0
    0.1107   -0.7551   -1.4369 H   0  0  0  0  0  0
   -0.8514   -0.1809   -0.0950 H   0  0  0  0  0  0
   -0.2354   -2.1163    1.2739 H   0  0  0  0  0  0
   -0.7105   -2.7403   -0.2948 H   0  0  0  0  0  0
    1.3769   -3.7723    0.0678 H   0  0  0  0  0  0
    1.4030    0.9726   -0.3404 H   0  0  0  0  0  0
    1.1473    0.2688    1.2443 H   0  0  0  0  0  0
    3.6116    1.0437    0.1787 H   0  0  0  0  0  0
    4.2448   -0.1521   -0.9516 H   0  0  0  0  0  0
    4.4635   -0.3653    0.7872 H   0  0  0  0  0  0
  1  2  1  0  0  0
  1  6  1  0  0  0
  1  9  1  0  0  0
  1 10  1  0  0  0
  2  3  1  0  0  0
  2 11  1  0  0  0
  2 12  1  0  0  0
  3  4  1  0  0  0
  3 13  1  0  0  0
  4  5  1  0  0  0
  4  7  2  0  0  0
  5  6  1  0  0  0
  5  8  1  0  0  0
  6 14  1  0  0  0
  6 15  1  0  0  0
  8 16  1  0  0  0
  8 17  1  0  0  0
  8 18  1  0  0  0
M  END
> <s_m_entry_name>
Schrodinger_fragment_268

> <i_m_number_of_atoms>
18

> <r_m_molecular_weight>
114.14825

> <s_m_molecular_formula>
C5H10N2O1

> <r_epik_Ionization_Penalty>
  0.0001

> <r_epik_Ionization_Penalty_Charging>
  0.0000

> <r_epik_Ionization_Penalty_Neutral>
  0.0001

> <r_epik_State_Penalty>
  0.0000

> <i_epik_Tot_Q>
0

> <r_epik_Metal_State_Penalty>
  0.0000

> <b_epik_Metal_Only>
0

> <s_m_entry_id>
4644

> <s_canvas_Unique_SMILES_Stereo>
O=C1N(C)CCCN1

$$$$
Schrodinger_fragment_212
                    3D
 Structure written by MMmdl.
 21 21  0  0  1  0            999 V2000
    0.0791   -0.7706    0.4199 C   0  0  0  0  0  0
    1.2861   -0.0287   -0.1521 C   0  0  0  0  0  0
    2.5111   -0.8330   -0.0448 N   0  0  0  0  0  0
    2.5528   -2.1924   -0.0269 C   0  0  0  0  0  0
    1.3577   -2.8416   -0.0392 N   0  0  0  0  0  0
    0.0454   -2.1891   -0.1466 C   0  0  0  0  0  0
    3.6257   -2.8084    0.0248 O   0  0  0  0  0  0
    1.3123   -4.3067   -0.0022 C   0  0  0  0  0  0
    3.7538   -0.0552   -0.0143 C   0  0  0  0  0  0
    0.1524   -0.8099    1.5084 H   0  0  0  0  0  0
   -0.8462   -0.2398    0.1906 H   0  0  0  0  0  0
    1.1172    0.1999   -1.2056 H   0  0  0  0  0  0
    1.3972    0.9254    0.3655 H   0  0  0  0  0  0
   -0.7217   -2.7639    0.3746 H   0  0  0  0  0  0
   -0.2391   -2.1625   -1.1997 H   0  0  0  0  0  0
    0.3111   -4.6995   -0.1821 H   0  0  0  0  0  0
    1.6442   -4.6707    0.9711 H   0  0  0  0  0  0
    1.9658   -4.7363   -0.7635 H   0  0  0  0  0  0
    4.4528   -0.4069   -0.7751 H   0  0  0  0  0  0
    4.2373   -0.1533    0.9586 H   0  0  0  0  0  0
    3.5881    1.0066   -0.1994 H   0  0  0  0  0  0
  1  2  1  0  0  0
  1  6  1  0  0  0
  1 10  1  0  0  0
  1 11  1  0  0  0
  2  3  1  0  0  0
  2 12  1  0  0  0
  2 13  1  0  0  0
  3  4  1  0  0  0
  3  9  1  0  0  0
  4  5  1  0  0  0
  4  7  2  0  0  0
  5  6  1  0  0  0
  5  8  1  0  0  0
  6 14  1  0  0  0
  6 15  1  0  0  0
  8 16  1  0  0  0
  8 17  1  0  0  0
  8 18  1  0  0  0
  9 19  1  0  0  0
  9 20  1  0  0  0
  9 21  1  0  0  0
M  END
> <s_m_entry_name>
Schrodinger_fragment_269

> <i_m_number_of_atoms>
21

> <r_m_molecular_weight>
128.17534

> <s_m_molecular_formula>
C6H12N2O1

> <r_epik_Ionization_Penalty>
  0.0001

> <r_epik_Ionization_Penalty_Charging>
  0.0000

> <r_epik_Ionization_Penalty_Neutral>
  0.0001

> <r_epik_State_Penalty>
  0.0000

> <i_epik_Tot_Q>
0

> <r_epik_Metal_State_Penalty>
  0.0000

> <b_epik_Metal_Only>
0

> <s_m_entry_id>
4645

> <s_canvas_Unique_SMILES_Stereo>
O=C1N(C)CCCN1C

$$$$
Schrodinger_fragment_213
                    3D
 Structure written by MMmdl.
 12 12  0  0  1  0            999 V2000
    1.2632    2.1222    0.0185 N   0  0  0  0  0  0
    1.2151    0.7329    0.0222 C   0  0  0  0  0  0
    2.4358    0.0673    0.0271 N   0  0  0  0  0  0
    3.6294    0.7630    0.0283 C   0  0  0  0  0  0
    3.6707    2.1174    0.0247 C   0  0  0  0  0  0
    2.4301    2.8908    0.0194 C   0  0  0  0  0  0
    2.3555    4.1203    0.0158 O   0  0  0  0  0  0
    0.1512    0.1213    0.0211 O   0  0  0  0  0  0
    0.3822    2.6188    0.0148 H   0  0  0  0  0  0
    2.4219   -0.9495    0.0299 H   0  0  0  0  0  0
    4.5560    0.2062    0.0322 H   0  0  0  0  0  0
    4.6215    2.6311    0.0257 H   0  0  0  0  0  0
  1  2  1  0  0  0
  1  6  1  0  0  0
  1  9  1  0  0  0
  2  3  1  0  0  0
  2  8  2  0  0  0
  3  4  1  0  0  0
  3 10  1  0  0  0
  4  5  2  0  0  0
  4 11  1  0  0  0
  5  6  1  0  0  0
  5 12  1  0  0  0
  6  7  2  0  0  0
M  END
> <s_m_entry_name>
Schrodinger_fragment_270

> <i_m_number_of_atoms>
12

> <r_m_molecular_weight>
112.08868

> <s_m_molecular_formula>
C4H4N2O2

> <r_epik_Ionization_Penalty>
  0.0068

> <r_epik_Ionization_Penalty_Charging>
  0.0068

> <r_epik_Ionization_Penalty_Neutral>
  0.0000

> <r_epik_State_Penalty>
  0.0000

> <i_epik_Tot_Q>
0

> <r_epik_Metal_State_Penalty>
  1.2753

> <b_epik_Metal_Only>
0

> <s_m_entry_id>
4646

> <s_canvas_Unique_SMILES_Stereo>
O=c1cc[nH]c(=O)[nH]1

$$$$
Schrodinger_fragment_213_a
                    3D
 Structure written by MMmdl.
 11 11  0  0  1  0            999 V2000
    1.2522    2.1101    0.0185 N   0  5  0  0  0  0
    1.2460    0.7481    0.0222 C   0  0  0  0  0  0
    2.4194    0.0950    0.0270 N   0  0  0  0  0  0
    3.6414    0.7778    0.0283 C   0  0  0  0  0  0
    3.6748    2.1259    0.0247 C   0  0  0  0  0  0
    2.4032    2.8404    0.0194 C   0  0  0  0  0  0
    2.3868    4.0738    0.0160 O   0  0  0  0  0  0
    0.2170    0.0779    0.0214 O   0  0  0  0  0  0
    2.4354   -0.9188    0.0298 H   0  0  0  0  0  0
    4.5170    0.1448    0.0323 H   0  0  0  0  0  0
    4.6143    2.6609    0.0256 H   0  0  0  0  0  0
  1  2  1  0  0  0
  1  6  1  0  0  0
  2  3  1  0  0  0
  2  8  2  0  0  0
  3  4  1  0  0  0
  3  9  1  0  0  0
  4  5  2  0  0  0
  4 10  1  0  0  0
  5  6  1  0  0  0
  5 11  1  0  0  0
  6  7  2  0  0  0
M  CHG  1   1  -1
M  END
> <s_m_entry_name>
Schrodinger_fragment_270

> <i_m_number_of_atoms>
12

> <r_m_molecular_weight>
112.08868

> <s_m_molecular_formula>
C4H4N2O2

> <r_epik_Ionization_Penalty>
  3.3445

> <r_epik_Ionization_Penalty_Charging>
  0.0000

> <r_epik_Ionization_Penalty_Neutral>
  3.3445

> <r_epik_State_Penalty>
  3.3424

> <i_epik_Tot_Q>
-1

> <r_epik_Metal_State_Penalty>
  0.5249

> <b_epik_Metal_Only>
1

> <s_m_entry_id>
4647

> <s_canvas_Unique_SMILES_Stereo>
O=c1cc[nH]c([n-]1)=O

$$$$
Schrodinger_fragment_213_b
                    3D
 Structure written by MMmdl.
 11 11  0  0  1  0            999 V2000
    1.2922    2.0951    0.0186 N   0  0  0  0  0  0
    1.2982    0.7071    0.0224 C   0  0  0  0  0  0
    2.4175    0.0637    0.0271 N   0  0  0  0  0  0
    3.6232    0.7768    0.0282 C   0  0  0  0  0  0
    3.6560    2.1268    0.0246 C   0  0  0  0  0  0
    2.3997    2.8699    0.0193 C   0  0  0  0  0  0
    2.3165    4.0987    0.0158 O   0  0  0  0  0  0
    0.1268    0.3226    0.0205 O   0  5  0  0  0  0
    0.3987    2.5673    0.0150 H   0  0  0  0  0  0
    4.5341    0.1932    0.0322 H   0  0  0  0  0  0
    4.5991    2.6556    0.0256 H   0  0  0  0  0  0
  1  2  1  0  0  0
  1  6  1  0  0  0
  1  9  1  0  0  0
  2  3  2  0  0  0
  2  8  1  0  0  0
  3  4  1  0  0  0
  4  5  2  0  0  0
  4 10  1  0  0  0
  5  6  1  0  0  0
  5 11  1  0  0  0
  6  7  2  0  0  0
M  CHG  1   8  -1
M  END
> <s_m_entry_name>
Schrodinger_fragment_270

> <i_m_number_of_atoms>
12

> <r_m_molecular_weight>
112.08868

> <s_m_molecular_formula>
C4H4N2O2

> <r_epik_Ionization_Penalty>
  2.8696

> <r_epik_Ionization_Penalty_Charging>
  0.0000

> <r_epik_Ionization_Penalty_Neutral>
  2.8696

> <r_epik_State_Penalty>
  2.8649

> <i_epik_Tot_Q>
-1

> <r_epik_Metal_State_Penalty>
  0.4455

> <b_epik_Metal_Only>
1

> <s_m_entry_id>
4648

> <s_canvas_Unique_SMILES_Stereo>
O=c1ccnc([O-])[nH]1

$$$$
Schrodinger_fragment_214
                    3D
 Structure written by MMmdl.
 15 15  0  0  1  0            999 V2000
    1.4336   -2.2003    0.0241 N   0  0  0  0  0  0
    1.3849   -3.6078    0.0281 C   0  0  0  0  0  0
    2.6007   -4.2790    0.0290 N   0  0  0  0  0  0
    3.7990   -3.5984    0.0262 C   0  0  0  0  0  0
    3.8564   -2.2472    0.0224 C   0  0  0  0  0  0
    2.6346   -1.4458    0.0210 C   0  0  0  0  0  0
    2.6375   -0.2108    0.0175 O   0  0  0  0  0  0
    0.3324   -4.2460    0.0306 O   0  0  0  0  0  0
    0.1586   -1.5146    0.0230 C   0  0  0  0  0  0
    2.5756   -5.2946    0.0319 H   0  0  0  0  0  0
    4.7202   -4.1642    0.0271 H   0  0  0  0  0  0
    4.8157   -1.7507    0.0203 H   0  0  0  0  0  0
    0.2899   -0.4332    0.0214 H   0  0  0  0  0  0
   -0.3741   -1.8223    0.9245 H   0  0  0  0  0  0
   -0.3741   -1.8254   -0.8774 H   0  0  0  0  0  0
  1  2  1  0  0  0
  1  6  1  0  0  0
  1  9  1  0  0  0
  2  3  1  0  0  0
  2  8  2  0  0  0
  3  4  1  0  0  0
  3 10  1  0  0  0
  4  5  2  0  0  0
  4 11  1  0  0  0
  5  6  1  0  0  0
  5 12  1  0  0  0
  6  7  2  0  0  0
  9 13  1  0  0  0
  9 14  1  0  0  0
  9 15  1  0  0  0
M  END
> <s_m_entry_name>
Schrodinger_fragment_271

> <i_m_number_of_atoms>
15

> <r_m_molecular_weight>
126.11577

> <s_m_molecular_formula>
C5H6N2O2

> <r_epik_Ionization_Penalty>
  0.0027

> <r_epik_Ionization_Penalty_Charging>
  0.0027

> <r_epik_Ionization_Penalty_Neutral>
  0.0000

> <r_epik_State_Penalty>
  0.0000

> <i_epik_Tot_Q>
0

> <r_epik_Metal_State_Penalty>
  1.0143

> <b_epik_Metal_Only>
0

> <s_m_entry_id>
4649

> <s_canvas_Unique_SMILES_Stereo>
Cn1c(=O)[nH]ccc1=O

$$$$
Schrodinger_fragment_214_a
                    3D
 Structure written by MMmdl.
 14 14  0  0  1  0            999 V2000
    1.4627   -2.2216    0.0241 N   0  0  0  0  0  0
    1.4813   -3.6502    0.0280 C   0  0  0  0  0  0
    2.6035   -4.2889    0.0291 N   0  0  0  0  0  0
    3.8106   -3.5932    0.0263 C   0  0  0  0  0  0
    3.8559   -2.2491    0.0224 C   0  0  0  0  0  0
    2.6171   -1.4810    0.0211 C   0  0  0  0  0  0
    2.6197   -0.2455    0.0175 O   0  0  0  0  0  0
    0.3413   -4.1336    0.0301 O   0  5  0  0  0  0
    0.1595   -1.5084    0.0231 C   0  0  0  0  0  0
    4.7154   -4.1865    0.0273 H   0  0  0  0  0  0
    4.8067   -1.7348    0.0202 H   0  0  0  0  0  0
    0.2318   -0.4205    0.0212 H   0  0  0  0  0  0
   -0.4226   -1.7725    0.9074 H   0  0  0  0  0  0
   -0.4227   -1.7757   -0.8603 H   0  0  0  0  0  0
  1  2  1  0  0  0
  1  6  1  0  0  0
  1  9  1  0  0  0
  2  3  2  0  0  0
  2  8  1  0  0  0
  3  4  1  0  0  0
  4  5  2  0  0  0
  4 10  1  0  0  0
  5  6  1  0  0  0
  5 11  1  0  0  0
  6  7  2  0  0  0
  9 12  1  0  0  0
  9 13  1  0  0  0
  9 14  1  0  0  0
M  CHG  1   8  -1
M  END
> <s_m_entry_name>
Schrodinger_fragment_271

> <i_m_number_of_atoms>
15

> <r_m_molecular_weight>
126.11577

> <s_m_molecular_formula>
C5H6N2O2

> <r_epik_Ionization_Penalty>
  3.1991

> <r_epik_Ionization_Penalty_Charging>
  0.0000

> <r_epik_Ionization_Penalty_Neutral>
  3.1991

> <r_epik_State_Penalty>
  3.1964

> <i_epik_Tot_Q>
-1

> <r_epik_Metal_State_Penalty>
  0.1180

> <b_epik_Metal_Only>
1

> <s_m_entry_id>
4650

> <s_canvas_Unique_SMILES_Stereo>
Cn1c([O-])nccc1=O

$$$$
Schrodinger_fragment_215
                    3D
 Structure written by MMmdl.
 18 18  0  0  1  0            999 V2000
    1.4432   -2.2316    0.0238 N   0  0  0  0  0  0
    1.3993   -3.6404    0.0241 C   0  0  0  0  0  0
    2.6339   -4.3196    0.0239 N   0  0  0  0  0  0
    3.8199   -3.6093    0.0235 C   0  0  0  0  0  0
    3.8631   -2.2593    0.0232 C   0  0  0  0  0  0
    2.6374   -1.4702    0.0233 C   0  0  0  0  0  0
    2.6323   -0.2355    0.0231 O   0  0  0  0  0  0
    0.3284   -4.2562    0.0244 O   0  0  0  0  0  0
    0.1650   -1.5486    0.0239 C   0  0  0  0  0  0
    2.5909   -5.7550    0.0242 C   0  0  0  0  0  0
    4.7567   -4.1479    0.0234 H   0  0  0  0  0  0
    4.8177   -1.7546    0.0229 H   0  0  0  0  0  0
    0.2911   -0.4665    0.0237 H   0  0  0  0  0  0
   -0.3671   -1.8584    0.9251 H   0  0  0  0  0  0
   -0.3674   -1.8587   -0.8770 H   0  0  0  0  0  0
    3.6166   -6.1258    0.0241 H   0  0  0  0  0  0
    2.0675   -6.0703   -0.8805 H   0  0  0  0  0  0
    2.0679   -6.0699    0.9293 H   0  0  0  0  0  0
  1  2  1  0  0  0
  1  6  1  0  0  0
  1  9  1  0  0  0
  2  3  1  0  0  0
  2  8  2  0  0  0
  3  4  1  0  0  0
  3 10  1  0  0  0
  4  5  2  0  0  0
  4 11  1  0  0  0
  5  6  1  0  0  0
  5 12  1  0  0  0
  6  7  2  0  0  0
  9 13  1  0  0  0
  9 14  1  0  0  0
  9 15  1  0  0  0
 10 16  1  0  0  0
 10 17  1  0  0  0
 10 18  1  0  0  0
M  END
> <s_m_entry_name>
Schrodinger_fragment_272

> <i_m_number_of_atoms>
18

> <r_m_molecular_weight>
140.14286

> <s_m_molecular_formula>
C6H8N2O2

> <r_epik_Ionization_Penalty>
  0.0000

> <r_epik_Ionization_Penalty_Charging>
  0.0000

> <r_epik_Ionization_Penalty_Neutral>
  0.0000

> <r_epik_State_Penalty>
  0.0000

> <i_epik_Tot_Q>
0

> <r_epik_Metal_State_Penalty>
  0.0000

> <b_epik_Metal_Only>
0

> <s_m_entry_id>
4651

> <s_canvas_Unique_SMILES_Stereo>
Cn1c(=O)n(C)ccc1=O

$$$$
Schrodinger_fragment_216
                    3D
 Structure written by MMmdl.
 15 15  0  0  1  0            999 V2000
    1.4751   -2.2757    0.1437 N   0  0  0  0  0  0
    1.4293   -3.6640    0.1506 C   0  0  0  0  0  0
    2.6589   -4.3421    0.0230 N   0  0  0  0  0  0
    3.8362   -3.6184   -0.1014 C   0  0  0  0  0  0
    3.8647   -2.2649   -0.1065 C   0  0  0  0  0  0
    2.6282   -1.5015    0.0217 C   0  0  0  0  0  0
    2.5459   -0.2728    0.0284 O   0  0  0  0  0  0
    0.3516   -4.2484    0.2644 O   0  0  0  0  0  0
    2.6147   -5.7797    0.0298 C   0  0  0  0  0  0
    0.5964   -1.7856    0.2349 H   0  0  0  0  0  0
    4.7759   -4.1433   -0.1990 H   0  0  0  0  0  0
    4.8061   -1.7441   -0.2059 H   0  0  0  0  0  0
    3.6320   -6.1582   -0.0761 H   0  0  0  0  0  0
    2.0012   -6.0986   -0.8154 H   0  0  0  0  0  0
    2.1897   -6.0958    0.9848 H   0  0  0  0  0  0
  1  2  1  0  0  0
  1  6  1  0  0  0
  1 10  1  0  0  0
  2  3  1  0  0  0
  2  8  2  0  0  0
  3  4  1  0  0  0
  3  9  1  0  0  0
  4  5  2  0  0  0
  4 11  1  0  0  0
  5  6  1  0  0  0
  5 12  1  0  0  0
  6  7  2  0  0  0
  9 13  1  0  0  0
  9 14  1  0  0  0
  9 15  1  0  0  0
M  END
> <s_m_entry_name>
Schrodinger_fragment_273

> <i_m_number_of_atoms>
15

> <r_m_molecular_weight>
126.11577

> <s_m_molecular_formula>
C5H6N2O2

> <r_epik_Ionization_Penalty>
  0.0013

> <r_epik_Ionization_Penalty_Charging>
  0.0013

> <r_epik_Ionization_Penalty_Neutral>
  0.0000

> <r_epik_State_Penalty>
  0.0000

> <i_epik_Tot_Q>
0

> <r_epik_Metal_State_Penalty>
  0.6757

> <b_epik_Metal_Only>
0

> <s_m_entry_id>
4652

> <s_canvas_Unique_SMILES_Stereo>
[nH]1c(=O)n(C)ccc1=O

$$$$
Schrodinger_fragment_216_a
                    3D
 Structure written by MMmdl.
 14 14  0  0  1  0            999 V2000
    1.4581   -2.2535    0.1454 N   0  5  0  0  0  0
    1.4370   -3.6158    0.1498 C   0  0  0  0  0  0
    2.6073   -4.3002    0.0283 N   0  0  0  0  0  0
    3.8217   -3.6024   -0.0999 C   0  0  0  0  0  0
    3.8625   -2.2560   -0.1063 C   0  0  0  0  0  0
    2.6061   -1.5348    0.0241 C   0  0  0  0  0  0
    2.5991   -0.3018    0.0229 O   0  0  0  0  0  0
    0.3819   -4.2438    0.2612 O   0  0  0  0  0  0
    2.6451   -5.7656    0.0266 C   0  0  0  0  0  0
    4.7058   -4.2156   -0.1916 H   0  0  0  0  0  0
    4.8002   -1.7279   -0.2053 H   0  0  0  0  0  0
    3.6551   -6.1629   -0.0785 H   0  0  0  0  0  0
    2.0495   -6.1603   -0.7978 H   0  0  0  0  0  0
    2.2333   -6.1576    0.9578 H   0  0  0  0  0  0
  1  2  1  0  0  0
  1  6  1  0  0  0
  2  3  1  0  0  0
  2  8  2  0  0  0
  3  4  1  0  0  0
  3  9  1  0  0  0
  4  5  2  0  0  0
  4 10  1  0  0  0
  5  6  1  0  0  0
  5 11  1  0  0  0
  6  7  2  0  0  0
  9 12  1  0  0  0
  9 13  1  0  0  0
  9 14  1  0  0  0
M  CHG  1   1  -1
M  END
> <s_m_entry_name>
Schrodinger_fragment_273

> <i_m_number_of_atoms>
15

> <r_m_molecular_weight>
126.11577

> <s_m_molecular_formula>
C5H6N2O2

> <r_epik_Ionization_Penalty>
  3.6465

> <r_epik_Ionization_Penalty_Charging>
  0.0000

> <r_epik_Ionization_Penalty_Neutral>
  3.6465

> <r_epik_State_Penalty>
  3.6453

> <i_epik_Tot_Q>
-1

> <r_epik_Metal_State_Penalty>
  0.2282

> <b_epik_Metal_Only>
1

> <s_m_entry_id>
4653

> <s_canvas_Unique_SMILES_Stereo>
[n-]1c(=O)n(C)ccc1=O

$$$$
Schrodinger_fragment_217
                    3D
 Structure written by MMmdl.
 14 14  0  0  1  0            999 V2000
    1.2150    2.2214    0.1692 C   0  0  0  0  0  0
    1.2019    0.6829    0.1722 C   0  0  0  0  0  0
    2.3738    0.0372    0.1741 N   0  0  0  0  0  0
    3.7018    0.6608    0.1736 C   0  0  0  0  0  0
    3.7149    2.1994    0.1706 C   0  0  0  0  0  0
    2.5430    2.8451    0.1687 N   0  0  0  0  0  0
    4.7815    2.8118    0.1700 O   0  0  0  0  0  0
    0.1353    0.0704    0.1728 O   0  0  0  0  0  0
    0.6661    2.5695   -0.7062 H   0  0  0  0  0  0
    0.6652    2.5729    1.0428 H   0  0  0  0  0  0
    2.3493   -0.9724    0.1760 H   0  0  0  0  0  0
    4.2507    0.3128    1.0491 H   0  0  0  0  0  0
    4.2516    0.3094   -0.6999 H   0  0  0  0  0  0
    2.5675    3.8546    0.1668 H   0  0  0  0  0  0
  1  2  1  0  0  0
  1  6  1  0  0  0
  1  9  1  0  0  0
  1 10  1  0  0  0
  2  3  1  0  0  0
  2  8  2  0  0  0
  3  4  1  0  0  0
  3 11  1  0  0  0
  4  5  1  0  0  0
  4 12  1  0  0  0
  4 13  1  0  0  0
  5  6  1  0  0  0
  5  7  2  0  0  0
  6 14  1  0  0  0
M  END
> <s_m_entry_name>
Schrodinger_fragment_274

> <i_m_number_of_atoms>
14

> <r_m_molecular_weight>
114.10462

> <s_m_molecular_formula>
C4H6N2O2

> <r_epik_Ionization_Penalty>
  0.0000

> <r_epik_Ionization_Penalty_Charging>
  0.0000

> <r_epik_Ionization_Penalty_Neutral>
  0.0000

> <r_epik_State_Penalty>
  0.0000

> <i_epik_Tot_Q>
0

> <r_epik_Metal_State_Penalty>
  0.0000

> <b_epik_Metal_Only>
0

> <s_m_entry_id>
4654

> <s_canvas_Unique_SMILES_Stereo>
O=C1CNC(=O)CN1

$$$$
Schrodinger_fragment_218
                    3D
 Structure written by MMmdl.
 17 17  0  0  1  0            999 V2000
    1.4357   -1.1923    0.2772 C   0  0  0  0  0  0
    1.4195   -2.7260    0.3274 C   0  0  0  0  0  0
    2.5756   -3.3773    0.1913 N   0  0  0  0  0  0
    3.8847   -2.7545   -0.0053 C   0  0  0  0  0  0
    3.9089   -1.2170   -0.0567 C   0  0  0  0  0  0
    2.7427   -0.5418    0.0800 N   0  0  0  0  0  0
    4.9949   -0.6538   -0.2213 O   0  0  0  0  0  0
    0.3603   -3.3293    0.4896 O   0  0  0  0  0  0
    2.6920    0.9241    0.0410 C   0  0  0  0  0  0
    0.7657   -0.8796   -0.5244 H   0  0  0  0  0  0
    1.0001   -0.8254    1.2072 H   0  0  0  0  0  0
    2.5534   -4.3871    0.2259 H   0  0  0  0  0  0
    4.5461   -3.0796    0.7980 H   0  0  0  0  0  0
    4.3117   -3.1338   -0.9338 H   0  0  0  0  0  0
    3.6618    1.4016   -0.1052 H   0  0  0  0  0  0
    2.2809    1.3103    0.9742 H   0  0  0  0  0  0
    2.0446    1.2557   -0.7714 H   0  0  0  0  0  0
  1  2  1  0  0  0
  1  6  1  0  0  0
  1 10  1  0  0  0
  1 11  1  0  0  0
  2  3  1  0  0  0
  2  8  2  0  0  0
  3  4  1  0  0  0
  3 12  1  0  0  0
  4  5  1  0  0  0
  4 13  1  0  0  0
  4 14  1  0  0  0
  5  6  1  0  0  0
  5  7  2  0  0  0
  6  9  1  0  0  0
  9 15  1  0  0  0
  9 16  1  0  0  0
  9 17  1  0  0  0
M  END
> <s_m_entry_name>
Schrodinger_fragment_275

> <i_m_number_of_atoms>
17

> <r_m_molecular_weight>
128.13171

> <s_m_molecular_formula>
C5H8N2O2

> <r_epik_Ionization_Penalty>
  0.0000

> <r_epik_Ionization_Penalty_Charging>
  0.0000

> <r_epik_Ionization_Penalty_Neutral>
  0.0000

> <r_epik_State_Penalty>
  0.0000

> <i_epik_Tot_Q>
0

> <r_epik_Metal_State_Penalty>
  0.0000

> <b_epik_Metal_Only>
0

> <s_m_entry_id>
4655

> <s_canvas_Unique_SMILES_Stereo>
CN1CC(=O)NCC1=O

$$$$
Schrodinger_fragment_219
                    3D
 Structure written by MMmdl.
 20 20  0  0  1  0            999 V2000
    1.4383   -2.1168    0.1508 C   0  0  0  0  0  0
    1.4210   -3.6511    0.1583 C   0  0  0  0  0  0
    2.5912   -4.3145    0.0629 N   0  0  0  0  0  0
    3.8984   -3.6551   -0.0492 C   0  0  0  0  0  0
    3.9165   -2.1201   -0.0568 C   0  0  0  0  0  0
    2.7449   -1.4536    0.0387 N   0  0  0  0  0  0
    5.0076   -1.5505   -0.1504 O   0  0  0  0  0  0
    0.3347   -4.2302    0.2516 O   0  0  0  0  0  0
    2.6876    0.0124    0.0377 C   0  0  0  0  0  0
    2.6107   -5.7792    0.0671 C   0  0  0  0  0  0
    0.8085   -1.7848   -0.6750 H   0  0  0  0  0  0
    0.9544   -1.7779    1.0672 H   0  0  0  0  0  0
    4.5264   -3.9886    0.7774 H   0  0  0  0  0  0
    4.3804   -3.9955   -0.9661 H   0  0  0  0  0  0
    3.6609    0.4978   -0.0457 H   0  0  0  0  0  0
    2.2276    0.3708    0.9592 H   0  0  0  0  0  0
    2.0805    0.3638   -0.7971 H   0  0  0  0  0  0
    3.6241   -6.1737   -0.0163 H   0  0  0  0  0  0
    2.0334   -6.1756   -0.7696 H   0  0  0  0  0  0
    2.1809   -6.1687    0.9913 H   0  0  0  0  0  0
  1  2  1  0  0  0
  1  6  1  0  0  0
  1 11  1  0  0  0
  1 12  1  0  0  0
  2  3  1  0  0  0
  2  8  2  0  0  0
  3  4  1  0  0  0
  3 10  1  0  0  0
  4  5  1  0  0  0
  4 13  1  0  0  0
  4 14  1  0  0  0
  5  6  1  0  0  0
  5  7  2  0  0  0
  6  9  1  0  0  0
  9 15  1  0  0  0
  9 16  1  0  0  0
  9 17  1  0  0  0
 10 18  1  0  0  0
 10 19  1  0  0  0
 10 20  1  0  0  0
M  END
> <s_m_entry_name>
Schrodinger_fragment_276

> <i_m_number_of_atoms>
20

> <r_m_molecular_weight>
142.1588

> <s_m_molecular_formula>
C6H10N2O2

> <r_epik_Ionization_Penalty>
  0.0000

> <r_epik_Ionization_Penalty_Charging>
  0.0000

> <r_epik_Ionization_Penalty_Neutral>
  0.0000

> <r_epik_State_Penalty>
  0.0000

> <i_epik_Tot_Q>
0

> <r_epik_Metal_State_Penalty>
  0.0000

> <b_epik_Metal_Only>
0

> <s_m_entry_id>
4656

> <s_canvas_Unique_SMILES_Stereo>
CN1CC(=O)N(C)CC1=O

$$$$
Schrodinger_fragment_220
                    3D
 Structure written by MMmdl.
 12 12  0  0  1  0            999 V2000
    1.2121    2.2254    0.0199 C   0  0  0  0  0  0
    1.2096    0.6457    0.0177 C   0  0  0  0  0  0
    2.4175    0.0462    0.0214 N   0  0  0  0  0  0
    3.6221    0.7583    0.0270 C   0  0  0  0  0  0
    3.6241    2.1054    0.0289 C   0  0  0  0  0  0
    2.4217    2.8211    0.0254 N   0  0  0  0  0  0
    0.1481    0.0126    0.0128 O   0  0  0  0  0  0
    0.1525    2.8618    0.0168 O   0  0  0  0  0  0
    2.4603   -0.9625    0.0202 H   0  0  0  0  0  0
    4.5129    0.1439    0.0295 H   0  0  0  0  0  0
    4.5168    2.7171    0.0332 H   0  0  0  0  0  0
    2.4676    3.8298    0.0270 H   0  0  0  0  0  0
  1  2  1  0  0  0
  1  6  1  0  0  0
  1  8  2  0  0  0
  2  3  1  0  0  0
  2  7  2  0  0  0
  3  4  1  0  0  0
  3  9  1  0  0  0
  4  5  2  0  0  0
  4 10  1  0  0  0
  5  6  1  0  0  0
  5 11  1  0  0  0
  6 12  1  0  0  0
M  END
> <s_m_entry_name>
Schrodinger_fragment_277

> <i_m_number_of_atoms>
12

> <r_m_molecular_weight>
112.08868

> <s_m_molecular_formula>
C4H4N2O2

> <r_epik_Ionization_Penalty>
  0.0002

> <r_epik_Ionization_Penalty_Charging>
  0.0002

> <r_epik_Ionization_Penalty_Neutral>
  0.0000

> <r_epik_State_Penalty>
  0.0000

> <i_epik_Tot_Q>
0

> <r_epik_Metal_State_Penalty>
  0.1080

> <b_epik_Metal_Only>
0

> <s_m_entry_id>
4657

> <s_canvas_Unique_SMILES_Stereo>
O=c1c(=O)[nH]cc[nH]1

$$$$
Schrodinger_fragment_220_a
                    3D
 Structure written by MMmdl.
 11 11  0  0  1  0            999 V2000
    1.1992    2.2165    0.0199 C   0  0  0  0  0  0
    1.2777    0.6587    0.0180 C   0  0  0  0  0  0
    2.3948    0.0323    0.0213 N   0  0  0  0  0  0
    3.6027    0.7509    0.0269 C   0  0  0  0  0  0
    3.6135    2.1002    0.0289 C   0  0  0  0  0  0
    2.4093    2.8140    0.0253 N   0  0  0  0  0  0
    0.1638    0.1183    0.0130 O   0  5  0  0  0  0
    0.1392    2.8544    0.0167 O   0  0  0  0  0  0
    4.5228    0.1771    0.0296 H   0  0  0  0  0  0
    4.5071    2.7113    0.0331 H   0  0  0  0  0  0
    2.4544    3.8218    0.0269 H   0  0  0  0  0  0
  1  2  1  0  0  0
  1  6  1  0  0  0
  1  8  2  0  0  0
  2  3  2  0  0  0
  2  7  1  0  0  0
  3  4  1  0  0  0
  4  5  2  0  0  0
  4  9  1  0  0  0
  5  6  1  0  0  0
  5 10  1  0  0  0
  6 11  1  0  0  0
M  CHG  1   7  -1
M  END
> <s_m_entry_name>
Schrodinger_fragment_277

> <i_m_number_of_atoms>
12

> <r_m_molecular_weight>
112.08868

> <s_m_molecular_formula>
C4H4N2O2

> <r_epik_Ionization_Penalty>
  5.1940

> <r_epik_Ionization_Penalty_Charging>
  0.1475

> <r_epik_Ionization_Penalty_Neutral>
  5.0464

> <r_epik_State_Penalty>
  5.0463

> <i_epik_Tot_Q>
-1

> <r_epik_Metal_State_Penalty>
  1.0616

> <b_epik_Metal_Only>
1

> <s_m_entry_id>
4658

> <s_canvas_Unique_SMILES_Stereo>
[O-]c1c(=O)[nH]ccn1

$$$$
Schrodinger_fragment_221
                    3D
 Structure written by MMmdl.
 15 15  0  0  1  0            999 V2000
    1.3885   -1.1836    0.0197 C   0  0  0  0  0  0
    1.4046   -2.7632    0.0188 C   0  0  0  0  0  0
    2.6143   -3.3541    0.0234 N   0  0  0  0  0  0
    3.8093   -2.6334    0.0288 C   0  0  0  0  0  0
    3.8010   -1.2874    0.0296 C   0  0  0  0  0  0
    2.5983   -0.5585    0.0251 N   0  0  0  0  0  0
    0.3496   -3.4094    0.0141 O   0  0  0  0  0  0
    0.3040   -0.5819    0.0157 O   0  0  0  0  0  0
    2.6725    0.9041    0.0263 C   0  0  0  0  0  0
    2.6643   -4.3633    0.0230 H   0  0  0  0  0  0
    4.7049   -3.2411    0.0321 H   0  0  0  0  0  0
    4.7044   -0.6926    0.0337 H   0  0  0  0  0  0
    3.6979    1.2742    0.0307 H   0  0  0  0  0  0
    2.1735    1.3107    0.9071 H   0  0  0  0  0  0
    2.1808    1.3118   -0.8580 H   0  0  0  0  0  0
  1  2  1  0  0  0
  1  6  1  0  0  0
  1  8  2  0  0  0
  2  3  1  0  0  0
  2  7  2  0  0  0
  3  4  1  0  0  0
  3 10  1  0  0  0
  4  5  2  0  0  0
  4 11  1  0  0  0
  5  6  1  0  0  0
  5 12  1  0  0  0
  6  9  1  0  0  0
  9 13  1  0  0  0
  9 14  1  0  0  0
  9 15  1  0  0  0
M  END
> <s_m_entry_name>
Schrodinger_fragment_278

> <i_m_number_of_atoms>
15

> <r_m_molecular_weight>
126.11577

> <s_m_molecular_formula>
C5H6N2O2

> <r_epik_Ionization_Penalty>
  0.0000

> <r_epik_Ionization_Penalty_Charging>
  0.0000

> <r_epik_Ionization_Penalty_Neutral>
  0.0000

> <r_epik_State_Penalty>
  0.0000

> <i_epik_Tot_Q>
0

> <r_epik_Metal_State_Penalty>
  0.0117

> <b_epik_Metal_Only>
0

> <s_m_entry_id>
4659

> <s_canvas_Unique_SMILES_Stereo>
Cn1cc[nH]c(=O)c1=O

$$$$
Schrodinger_fragment_221_a
                    3D
 Structure written by MMmdl.
 14 14  0  0  1  0            999 V2000
    1.3780   -1.1894    0.0197 C   0  0  0  0  0  0
    1.4726   -2.7465    0.0191 C   0  0  0  0  0  0
    2.5916   -3.3658    0.0233 N   0  0  0  0  0  0
    3.7907   -2.6423    0.0287 C   0  0  0  0  0  0
    3.7928   -1.2949    0.0295 C   0  0  0  0  0  0
    2.5901   -0.5652    0.0251 N   0  0  0  0  0  0
    0.3647   -3.3020    0.0142 O   0  5  0  0  0  0
    0.2944   -0.5836    0.0156 O   0  0  0  0  0  0
    2.6653    0.8979    0.0263 C   0  0  0  0  0  0
    4.7140   -3.2110    0.0321 H   0  0  0  0  0  0
    4.6980   -0.7021    0.0336 H   0  0  0  0  0  0
    3.6909    1.2674    0.0307 H   0  0  0  0  0  0
    2.1659    1.3036    0.9070 H   0  0  0  0  0  0
    2.1731    1.3047   -0.8580 H   0  0  0  0  0  0
  1  2  1  0  0  0
  1  6  1  0  0  0
  1  8  2  0  0  0
  2  3  2  0  0  0
  2  7  1  0  0  0
  3  4  1  0  0  0
  4  5  2  0  0  0
  4 10  1  0  0  0
  5  6  1  0  0  0
  5 11  1  0  0  0
  6  9  1  0  0  0
  9 12  1  0  0  0
  9 13  1  0  0  0
  9 14  1  0  0  0
M  CHG  1   7  -1
M  END
> <s_m_entry_name>
Schrodinger_fragment_278

> <i_m_number_of_atoms>
15

> <r_m_molecular_weight>
126.11577

> <s_m_molecular_formula>
C5H6N2O2

> <r_epik_Ionization_Penalty>
  6.6049

> <r_epik_Ionization_Penalty_Charging>
  0.1929

> <r_epik_Ionization_Penalty_Neutral>
  6.4120

> <r_epik_State_Penalty>
  6.4120

> <i_epik_Tot_Q>
-1

> <r_epik_Metal_State_Penalty>
  2.3309

> <b_epik_Metal_Only>
1

> <s_m_entry_id>
4660

> <s_canvas_Unique_SMILES_Stereo>
[O-]c1c(=O)n(C)ccn1

$$$$
Schrodinger_fragment_222
                    3D
 Structure written by MMmdl.
 18 18  0  0  1  0            999 V2000
    1.3861   -2.0987    0.1280 C   0  0  0  0  0  0
    1.3839   -3.6781    0.1297 C   0  0  0  0  0  0
    2.5898   -4.2980    0.0268 N   0  0  0  0  0  0
    3.7812   -3.5645   -0.0761 C   0  0  0  0  0  0
    3.7830   -2.2195   -0.0775 C   0  0  0  0  0  0
    2.5937   -1.4825    0.0238 N   0  0  0  0  0  0
    0.3076   -4.2899    0.2226 O   0  0  0  0  0  0
    0.3115   -1.4838    0.2195 O   0  0  0  0  0  0
    2.6795   -0.0205    0.0150 C   0  0  0  0  0  0
    2.6715   -5.7602    0.0212 C   0  0  0  0  0  0
    4.6841   -4.1550   -0.1530 H   0  0  0  0  0  0
    4.6876   -1.6317   -0.1557 H   0  0  0  0  0  0
    3.7040    0.3414   -0.0732 H   0  0  0  0  0  0
    2.2648    0.3917    0.9360 H   0  0  0  0  0  0
    2.1140    0.3900   -0.8226 H   0  0  0  0  0  0
    3.6950   -6.1251   -0.0662 H   0  0  0  0  0  0
    2.1048   -6.1709   -0.8156 H   0  0  0  0  0  0
    2.2557   -6.1693    0.9430 H   0  0  0  0  0  0
  1  2  1  0  0  0
  1  6  1  0  0  0
  1  8  2  0  0  0
  2  3  1  0  0  0
  2  7  2  0  0  0
  3  4  1  0  0  0
  3 10  1  0  0  0
  4  5  2  0  0  0
  4 11  1  0  0  0
  5  6  1  0  0  0
  5 12  1  0  0  0
  6  9  1  0  0  0
  9 13  1  0  0  0
  9 14  1  0  0  0
  9 15  1  0  0  0
 10 16  1  0  0  0
 10 17  1  0  0  0
 10 18  1  0  0  0
M  END
> <s_m_entry_name>
Schrodinger_fragment_279

> <i_m_number_of_atoms>
18

> <r_m_molecular_weight>
140.14286

> <s_m_molecular_formula>
C6H8N2O2

> <r_epik_Ionization_Penalty>
  0.0000

> <r_epik_Ionization_Penalty_Charging>
  0.0000

> <r_epik_Ionization_Penalty_Neutral>
  0.0000

> <r_epik_State_Penalty>
  0.0000

> <i_epik_Tot_Q>
0

> <r_epik_Metal_State_Penalty>
  0.0000

> <b_epik_Metal_Only>
0

> <s_m_entry_id>
4661

> <s_canvas_Unique_SMILES_Stereo>
Cn1ccn(C)c(=O)c1=O

$$$$
Schrodinger_fragment_223
                    3D
 Structure written by MMmdl.
 14 14  0  0  1  0            999 V2000
    0.0837    2.1562   -0.0639 N   0  0  0  0  0  0
    0.0352    0.7319    0.2465 C   0  0  0  0  0  0
    1.2956    0.0660   -0.0622 N   0  0  0  0  0  0
    2.4790    0.6857    0.0263 C   0  0  0  0  0  0
    2.5114    2.1677    0.4569 C   0  0  0  0  0  0
    1.2094    2.8754    0.0245 C   0  0  0  0  0  0
    1.2133    4.0852   -0.2134 O   0  0  0  0  0  0
    3.5310    0.0877   -0.2101 O   0  0  0  0  0  0
   -0.7794    2.6150   -0.3277 H   0  0  0  0  0  0
   -0.2028    0.5947    1.3027 H   0  0  0  0  0  0
   -0.7679    0.2658   -0.3256 H   0  0  0  0  0  0
    1.2651   -0.9114   -0.3246 H   0  0  0  0  0  0
    2.6212    2.2323    1.5391 H   0  0  0  0  0  0
    3.3698    2.6651    0.0050 H   0  0  0  0  0  0
  1  2  1  0  0  0
  1  6  1  0  0  0
  1  9  1  0  0  0
  2  3  1  0  0  0
  2 10  1  0  0  0
  2 11  1  0  0  0
  3  4  1  0  0  0
  3 12  1  0  0  0
  4  5  1  0  0  0
  4  8  2  0  0  0
  5  6  1  0  0  0
  5 13  1  0  0  0
  5 14  1  0  0  0
  6  7  2  0  0  0
M  END
> <s_m_entry_name>
Schrodinger_fragment_280

> <i_m_number_of_atoms>
14

> <r_m_molecular_weight>
114.10462

> <s_m_molecular_formula>
C4H6N2O2

> <r_epik_Ionization_Penalty>
  0.0001

> <r_epik_Ionization_Penalty_Charging>
  0.0000

> <r_epik_Ionization_Penalty_Neutral>
  0.0001

> <r_epik_State_Penalty>
  0.0000

> <i_epik_Tot_Q>
0

> <r_epik_Metal_State_Penalty>
  0.0245

> <b_epik_Metal_Only>
0

> <s_m_entry_id>
4662

> <s_canvas_Unique_SMILES_Stereo>
O=C1CC(=O)NCN1

$$$$
Schrodinger_fragment_223_a
                    3D
 Structure written by MMmdl.
 13 13  0  0  1  0            999 V2000
    0.0957    2.1791   -0.0841 N   0  0  0  0  0  0
    0.0659    0.7499    0.2572 C   0  0  0  0  0  0
    1.3063    0.0750   -0.0997 N   0  0  0  0  0  0
    2.4932    0.6708    0.0300 C   0  0  0  0  0  0
    2.4733    2.1480    0.4505 C   0  0  0  0  0  0
    1.1703    2.8478    0.0262 C   0  0  0  0  0  0
    1.2299    4.0612   -0.1966 O   0  5  0  0  0  0
    3.5553    0.0750   -0.1707 O   0  0  0  0  0  0
   -0.1287    0.6139    1.3237 H   0  0  0  0  0  0
   -0.7531    0.2581   -0.2710 H   0  0  0  0  0  0
    1.2658   -0.9033   -0.3616 H   0  0  0  0  0  0
    2.5897    2.2109    1.5335 H   0  0  0  0  0  0
    3.3355    2.6505    0.0074 H   0  0  0  0  0  0
  1  2  1  0  0  0
  1  6  2  0  0  0
  2  3  1  0  0  0
  2  9  1  0  0  0
  2 10  1  0  0  0
  3  4  1  0  0  0
  3 11  1  0  0  0
  4  5  1  0  0  0
  4  8  2  0  0  0
  5  6  1  0  0  0
  5 12  1  0  0  0
  5 13  1  0  0  0
  6  7  1  0  0  0
M  CHG  1   7  -1
M  END
> <s_m_entry_name>
Schrodinger_fragment_280

> <i_m_number_of_atoms>
14

> <r_m_molecular_weight>
114.10462

> <s_m_molecular_formula>
C4H6N2O2

> <r_epik_Ionization_Penalty>
  5.9678

> <r_epik_Ionization_Penalty_Charging>
  5.9678

> <r_epik_Ionization_Penalty_Neutral>
  0.0000

> <r_epik_State_Penalty>
  5.9678

> <i_epik_Tot_Q>
-1

> <r_epik_Metal_State_Penalty>
  1.8995

> <b_epik_Metal_Only>
1

> <s_m_entry_id>
4663

> <s_canvas_Unique_SMILES_Stereo>
[O-]C1=NCNC(=O)C1

$$$$
Schrodinger_fragment_224
                    3D
 Structure written by MMmdl.
 17 17  0  0  1  0            999 V2000
    0.6361   -2.1778    0.0515 N   0  0  0  0  0  0
    0.6173   -3.5554    0.5562 C   0  0  0  0  0  0
    1.7986   -4.3099    0.1520 N   0  0  0  0  0  0
    2.9953   -3.7298    0.0113 C   0  0  0  0  0  0
    3.1155   -2.2208    0.2984 C   0  0  0  0  0  0
    1.8029   -1.5097   -0.0936 C   0  0  0  0  0  0
    1.8528   -0.3441   -0.5056 O   0  0  0  0  0  0
    3.9882   -4.3818   -0.3162 O   0  0  0  0  0  0
   -0.6549   -1.5630   -0.2574 C   0  0  0  0  0  0
    0.5500   -3.5403    1.6454 H   0  0  0  0  0  0
   -0.2634   -4.0851    0.1903 H   0  0  0  0  0  0
    1.7028   -5.3037   -0.0157 H   0  0  0  0  0  0
    3.3139   -2.0633    1.3582 H   0  0  0  0  0  0
    3.9486   -1.8004   -0.2647 H   0  0  0  0  0  0
   -0.7307   -0.5674    0.1826 H   0  0  0  0  0  0
   -1.4897   -2.1498    0.1270 H   0  0  0  0  0  0
   -0.7789   -1.4675   -1.3366 H   0  0  0  0  0  0
  1  2  1  0  0  0
  1  6  1  0  0  0
  1  9  1  0  0  0
  2  3  1  0  0  0
  2 10  1  0  0  0
  2 11  1  0  0  0
  3  4  1  0  0  0
  3 12  1  0  0  0
  4  5  1  0  0  0
  4  8  2  0  0  0
  5  6  1  0  0  0
  5 13  1  0  0  0
  5 14  1  0  0  0
  6  7  2  0  0  0
  9 15  1  0  0  0
  9 16  1  0  0  0
  9 17  1  0  0  0
M  END
> <s_m_entry_name>
Schrodinger_fragment_282

> <i_m_number_of_atoms>
17

> <r_m_molecular_weight>
128.13171

> <s_m_molecular_formula>
C5H8N2O2

> <r_epik_Ionization_Penalty>
  0.0000

> <r_epik_Ionization_Penalty_Charging>
  0.0000

> <r_epik_Ionization_Penalty_Neutral>
  0.0000

> <r_epik_State_Penalty>
  0.0000

> <i_epik_Tot_Q>
0

> <r_epik_Metal_State_Penalty>
  0.0083

> <b_epik_Metal_Only>
0

> <s_m_entry_id>
4664

> <s_canvas_Unique_SMILES_Stereo>
CN1CNC(=O)CC1=O

$$$$
Schrodinger_fragment_224_a
                    3D
 Structure written by MMmdl.
 16 16  0  0  1  0            999 V2000
    0.6416   -2.1713    0.0376 N   0  0  0  0  0  0
    0.6469   -3.5358    0.5850 C   0  0  0  0  0  0
    1.8184   -4.3204    0.1710 N   0  0  0  0  0  0
    2.9482   -3.7562    0.0512 C   0  0  0  0  0  0
    3.0802   -2.2447    0.2899 C   0  0  0  0  0  0
    1.7970   -1.4905   -0.0886 C   0  0  0  0  0  0
    1.8568   -0.3155   -0.4759 O   0  0  0  0  0  0
    3.9746   -4.3707   -0.2528 O   0  5  0  0  0  0
   -0.6547   -1.5658   -0.2712 C   0  0  0  0  0  0
    0.5944   -3.4795    1.6748 H   0  0  0  0  0  0
   -0.2568   -4.0579    0.2653 H   0  0  0  0  0  0
    3.3035   -2.0559    1.3409 H   0  0  0  0  0  0
    3.9103   -1.8388   -0.2912 H   0  0  0  0  0  0
   -0.7429   -0.5774    0.1824 H   0  0  0  0  0  0
   -1.4864   -2.1662    0.0981 H   0  0  0  0  0  0
   -0.7711   -1.4560   -1.3498 H   0  0  0  0  0  0
  1  2  1  0  0  0
  1  6  1  0  0  0
  1  9  1  0  0  0
  2  3  1  0  0  0
  2 10  1  0  0  0
  2 11  1  0  0  0
  3  4  2  0  0  0
  4  5  1  0  0  0
  4  8  1  0  0  0
  5  6  1  0  0  0
  5 12  1  0  0  0
  5 13  1  0  0  0
  6  7  2  0  0  0
  9 14  1  0  0  0
  9 15  1  0  0  0
  9 16  1  0  0  0
M  CHG  1   8  -1
M  END
> <s_m_entry_name>
Schrodinger_fragment_282

> <i_m_number_of_atoms>
17

> <r_m_molecular_weight>
128.13171

> <s_m_molecular_formula>
C5H8N2O2

> <r_epik_Ionization_Penalty>
  6.6149

> <r_epik_Ionization_Penalty_Charging>
  6.6145

> <r_epik_Ionization_Penalty_Neutral>
  0.0004

> <r_epik_State_Penalty>
  6.6145

> <i_epik_Tot_Q>
-1

> <r_epik_Metal_State_Penalty>
  2.5301

> <b_epik_Metal_Only>
1

> <s_m_entry_id>
4665

> <s_canvas_Unique_SMILES_Stereo>
C1C(=O)N(C)CN=C1[O-]

$$$$
Schrodinger_fragment_225
                    3D
 Structure written by MMmdl.
 20 20  0  0  1  0            999 V2000
    2.6479   -4.3037   -0.0759 N   0  0  0  0  0  0
    1.4943   -3.5577   -0.5914 C   0  0  0  0  0  0
    1.4260   -2.1881   -0.0693 N   0  0  0  0  0  0
    2.5572   -1.4954    0.1863 C   0  0  0  0  0  0
    3.9081   -2.1650   -0.1277 C   0  0  0  0  0  0
    3.8139   -3.6712    0.1795 C   0  0  0  0  0  0
    4.8079   -4.2600    0.6200 O   0  0  0  0  0  0
    2.5452   -0.3422    0.6322 O   0  0  0  0  0  0
    2.4792   -5.7425    0.1298 C   0  0  0  0  0  0
    0.0960   -1.6161    0.1426 C   0  0  0  0  0  0
    1.5482   -3.5231   -1.6808 H   0  0  0  0  0  0
    0.5757   -4.0890   -0.3375 H   0  0  0  0  0  0
    4.1529   -2.0204   -1.1793 H   0  0  0  0  0  0
    4.6987   -1.7103    0.4686 H   0  0  0  0  0  0
    3.3389   -6.2994   -0.2466 H   0  0  0  0  0  0
    1.5981   -6.1277   -0.3843 H   0  0  0  0  0  0
    2.3728   -5.9616    1.1928 H   0  0  0  0  0  0
    0.0424   -0.5915   -0.2288 H   0  0  0  0  0  0
   -0.1440   -1.6037    1.2064 H   0  0  0  0  0  0
   -0.6793   -2.1844   -0.3720 H   0  0  0  0  0  0
  1  2  1  0  0  0
  1  6  1  0  0  0
  1  9  1  0  0  0
  2  3  1  0  0  0
  2 11  1  0  0  0
  2 12  1  0  0  0
  3  4  1  0  0  0
  3 10  1  0  0  0
  4  5  1  0  0  0
  4  8  2  0  0  0
  5  6  1  0  0  0
  5 13  1  0  0  0
  5 14  1  0  0  0
  6  7  2  0  0  0
  9 15  1  0  0  0
  9 16  1  0  0  0
  9 17  1  0  0  0
 10 18  1  0  0  0
 10 19  1  0  0  0
 10 20  1  0  0  0
M  END
> <s_m_entry_name>
Schrodinger_fragment_285

> <i_m_number_of_atoms>
20

> <r_m_molecular_weight>
142.1588

> <s_m_molecular_formula>
C6H10N2O2

> <r_epik_Ionization_Penalty>
  0.0000

> <r_epik_Ionization_Penalty_Charging>
  0.0000

> <r_epik_Ionization_Penalty_Neutral>
  0.0000

> <r_epik_State_Penalty>
  0.0000

> <i_epik_Tot_Q>
0

> <r_epik_Metal_State_Penalty>
  0.0000

> <b_epik_Metal_Only>
0

> <s_m_entry_id>
4666

> <s_canvas_Unique_SMILES_Stereo>
CN1CN(C)C(=O)CC1=O

$$$$
Schrodinger_fragment_226
                    3D
 Structure written by MMmdl.
 11 11  0  0  1  0            999 V2000
    1.2201    3.4637    0.2320 C   0  0  0  0  0  0
    1.3272    2.1138    0.2028 N   0  5  0  0  0  0
    2.5199    1.4680    0.1927 C   0  0  0  0  0  0
    3.6437    2.1899    0.2123 N   0  0  0  0  0  0
    3.6488    3.5746    0.2426 C   0  0  0  0  0  0
    2.4410    4.2334    0.2530 C   0  0  0  0  0  0
    4.8514    3.9053    0.2539 O   0  5  0  0  0  0
    0.1421    4.0513    0.2411 O   0  0  0  0  0  0
    2.6420    0.2491    0.1666 O   0  0  0  0  0  0
    4.5450    1.7229    0.2051 H   0  0  0  0  0  0
    2.4047    5.3157    0.2766 H   0  0  0  0  0  0
  1  2  1  0  0  0
  1  6  1  0  0  0
  1  8  2  0  0  0
  2  3  1  0  0  0
  3  4  1  0  0  0
  3  9  2  0  0  0
  4  5  1  0  0  0
  4 10  1  0  0  0
  5  6  2  0  0  0
  5  7  1  0  0  0
  6 11  1  0  0  0
M  CHG  2   2  -1   7  -1
M  END
> <s_m_entry_name>
Schrodinger_fragment_287

> <i_m_number_of_atoms>
13

> <r_m_molecular_weight>
128.08808

> <s_m_molecular_formula>
C4H4N2O3

> <r_epik_Ionization_Penalty>
  7.2291

> <r_epik_Ionization_Penalty_Charging>
  0.0000

> <r_epik_Ionization_Penalty_Neutral>
  7.2291

> <r_epik_State_Penalty>
  0.1520

> <i_epik_Tot_Q>
-2

> <r_epik_Metal_State_Penalty>
  0.0002

> <b_epik_Metal_Only>
0

> <s_m_entry_id>
4667

> <s_canvas_Unique_SMILES_Stereo>
O=c1cc([O-])[nH]c([n-]1)=O

$$$$
Schrodinger_fragment_226_a
                    3D
 Structure written by MMmdl.
 12 12  0  0  1  0            999 V2000
    1.1999    3.4996    0.2386 C   0  0  0  0  0  0
    1.3208    2.1063    0.2161 N   0  0  0  0  0  0
    2.5185    1.4039    0.2045 C   0  0  0  0  0  0
    3.6859    2.1603    0.2164 N   0  0  0  0  0  0
    3.6402    3.5281    0.2385 C   0  0  0  0  0  0
    2.4746    4.2214    0.2500 C   0  0  0  0  0  0
    4.8467    4.1479    0.2481 O   0  5  0  0  0  0
    0.0819    4.0195    0.2473 O   0  0  0  0  0  0
    2.5619    0.1806    0.1848 O   0  0  0  0  0  0
    0.4610    1.5707    0.2077 H   0  0  0  0  0  0
    4.5723    1.6532    0.2080 H   0  0  0  0  0  0
    2.4679    5.3032    0.2674 H   0  0  0  0  0  0
  1  2  1  0  0  0
  1  6  1  0  0  0
  1  8  2  0  0  0
  2  3  1  0  0  0
  2 10  1  0  0  0
  3  4  1  0  0  0
  3  9  2  0  0  0
  4  5  1  0  0  0
  4 11  1  0  0  0
  5  6  2  0  0  0
  5  7  1  0  0  0
  6 12  1  0  0  0
M  CHG  1   7  -1
M  END
> <s_m_entry_name>
Schrodinger_fragment_287

> <i_m_number_of_atoms>
13

> <r_m_molecular_weight>
128.08808

> <s_m_molecular_formula>
C4H4N2O3

> <r_epik_Ionization_Penalty>
  0.0007

> <r_epik_Ionization_Penalty_Charging>
  0.0001

> <r_epik_Ionization_Penalty_Neutral>
  0.0006

> <r_epik_State_Penalty>
  0.8805

> <i_epik_Tot_Q>
-1

> <r_epik_Metal_State_Penalty>
  4.8215

> <b_epik_Metal_Only>
0

> <s_m_entry_id>
4668

> <s_canvas_Unique_SMILES_Stereo>
[O-]c1cc(=O)[nH]c(=O)[nH]1

$$$$
Schrodinger_fragment_227
                    3D
 Structure written by MMmdl.
 15 15  0  0  1  0            999 V2000
    1.4554   -0.8375    0.3422 C   0  0  0  0  0  0
    1.4108   -2.2077    0.1068 N   0  0  0  0  0  0
    2.6202   -2.9212   -0.0531 C   0  0  0  0  0  0
    3.8000   -2.1987    0.0364 N   0  0  0  0  0  0
    3.8996   -0.8291    0.2702 C   0  0  0  0  0  0
    2.6190   -0.1456    0.4268 C   0  0  0  0  0  0
    5.0091   -0.2951    0.3292 O   0  0  0  0  0  0
    0.2740   -0.1716    0.4928 O   0  5  0  0  0  0
    2.6525   -4.1318   -0.2635 O   0  0  0  0  0  0
    0.2084   -3.0090    0.0045 C   0  0  0  0  0  0
    4.6663   -2.7088   -0.0778 H   0  0  0  0  0  0
    2.6189    0.9203    0.6110 H   0  0  0  0  0  0
    0.2500   -3.7689    0.7880 H   0  0  0  0  0  0
    0.1952   -3.4595   -0.9904 H   0  0  0  0  0  0
   -0.6742   -2.3858    0.1402 H   0  0  0  0  0  0
  1  2  1  0  0  0
  1  6  2  0  0  0
  1  8  1  0  0  0
  2  3  1  0  0  0
  2 10  1  0  0  0
  3  4  1  0  0  0
  3  9  2  0  0  0
  4  5  1  0  0  0
  4 11  1  0  0  0
  5  6  1  0  0  0
  5  7  2  0  0  0
  6 12  1  0  0  0
 10 13  1  0  0  0
 10 14  1  0  0  0
 10 15  1  0  0  0
M  CHG  1   8  -1
M  END
> <s_m_entry_name>
Schrodinger_fragment_288

> <i_m_number_of_atoms>
16

> <r_m_molecular_weight>
142.11517

> <s_m_molecular_formula>
C5H6N2O3

> <r_epik_Ionization_Penalty>
  0.0008

> <r_epik_Ionization_Penalty_Charging>
  0.0001

> <r_epik_Ionization_Penalty_Neutral>
  0.0007

> <r_epik_State_Penalty>
  0.0126

> <i_epik_Tot_Q>
-1

> <r_epik_Metal_State_Penalty>
  0.0176

> <b_epik_Metal_Only>
0

> <s_m_entry_id>
4669

> <s_canvas_Unique_SMILES_Stereo>
Cn1c(=O)[nH]c(=O)cc1[O-]

$$$$
Schrodinger_fragment_227_a
                    3D
 Structure written by MMmdl.
 16 16  0  0  1  0            999 V2000
    1.3940   -0.8659    0.0419 C   0  0  0  0  0  0
    1.4824   -2.2227    0.0587 N   0  0  0  0  0  0
    2.6678   -2.8940    0.1106 C   0  0  0  0  0  0
    3.8049   -2.1842    0.1427 N   0  0  0  0  0  0
    3.9071   -0.8528    0.1299 C   0  0  0  0  0  0
    2.6501    0.0168    0.0757 C   0  0  0  0  0  0
    5.0157   -0.3079    0.1619 O   0  0  0  0  0  0
    0.2991   -0.2846   -0.0013 O   0  0  0  0  0  0
    2.7382   -4.1271    0.1294 O   0  0  0  0  0  0
    0.2166   -2.9829    0.0213 C   0  0  0  0  0  0
    4.6637   -2.7099    0.1801 H   0  0  0  0  0  0
    2.6788    0.6462   -0.8129 H   0  0  0  0  0  0
    2.6170    0.6664    0.9496 H   0  0  0  0  0  0
    0.3342   -4.0672    0.0089 H   0  0  0  0  0  0
   -0.3585   -2.7249   -0.8697 H   0  0  0  0  0  0
   -0.3954   -2.7453    0.8931 H   0  0  0  0  0  0
  1  2  1  0  0  0
  1  6  1  0  0  0
  1  8  2  0  0  0
  2  3  1  0  0  0
  2 10  1  0  0  0
  3  4  1  0  0  0
  3  9  2  0  0  0
  4  5  1  0  0  0
  4 11  1  0  0  0
  5  6  1  0  0  0
  5  7  2  0  0  0
  6 12  1  0  0  0
  6 13  1  0  0  0
 10 14  1  0  0  0
 10 15  1  0  0  0
 10 16  1  0  0  0
M  END
> <s_m_entry_name>
Schrodinger_fragment_288

> <i_m_number_of_atoms>
16

> <r_m_molecular_weight>
142.11517

> <s_m_molecular_formula>
C5H6N2O3

> <r_epik_Ionization_Penalty>
  4.7750

> <r_epik_Ionization_Penalty_Charging>
  0.0000

> <r_epik_Ionization_Penalty_Neutral>
  4.7750

> <r_epik_State_Penalty>
  2.2882

> <i_epik_Tot_Q>
0

> <r_epik_Metal_State_Penalty>
  5.6418

> <b_epik_Metal_Only>
0

> <s_m_entry_id>
4670

> <s_canvas_Unique_SMILES_Stereo>
CN1C(=O)NC(=O)CC1=O

$$$$
Schrodinger_fragment_227_b
                    3D
 Structure written by MMmdl.
 15 15  0  0  1  0            999 V2000
    1.3894   -0.8507    0.2172 C   0  0  0  0  0  0
    1.4499   -2.1959    0.0412 N   0  0  0  0  0  0
    2.6301   -2.8460   -0.1354 C   0  0  0  0  0  0
    3.8132   -2.1910   -0.0608 N   0  5  0  0  0  0
    3.9393   -0.8587    0.1386 C   0  0  0  0  0  0
    2.6626    0.0021    0.0963 C   0  0  0  0  0  0
    5.0227   -0.2890    0.3083 O   0  0  0  0  0  0
    0.3257   -0.2533    0.4415 O   0  0  0  0  0  0
    2.6184   -4.0636   -0.3473 O   0  0  0  0  0  0
    0.2035   -2.9903    0.0404 C   0  0  0  0  0  0
    2.6293    0.5583   -0.8404 H   0  0  0  0  0  0
    2.6835    0.7284    0.9091 H   0  0  0  0  0  0
    0.2371   -3.7479    0.8248 H   0  0  0  0  0  0
    0.0830   -3.5034   -0.9150 H   0  0  0  0  0  0
   -0.7078   -2.4138    0.2017 H   0  0  0  0  0  0
  1  2  1  0  0  0
  1  6  1  0  0  0
  1  8  2  0  0  0
  2  3  1  0  0  0
  2 10  1  0  0  0
  3  4  1  0  0  0
  3  9  2  0  0  0
  4  5  1  0  0  0
  5  6  1  0  0  0
  5  7  2  0  0  0
  6 11  1  0  0  0
  6 12  1  0  0  0
 10 13  1  0  0  0
 10 14  1  0  0  0
 10 15  1  0  0  0
M  CHG  1   4  -1
M  END
> <s_m_entry_name>
Schrodinger_fragment_288

> <i_m_number_of_atoms>
16

> <r_m_molecular_weight>
142.11517

> <s_m_molecular_formula>
C5H6N2O3

> <r_epik_Ionization_Penalty>
  7.0285

> <r_epik_Ionization_Penalty_Charging>
  0.7443

> <r_epik_Ionization_Penalty_Neutral>
  6.2843

> <r_epik_State_Penalty>
  2.8339

> <i_epik_Tot_Q>
-1

> <r_epik_Metal_State_Penalty>
  2.0948

> <b_epik_Metal_Only>
1

> <s_m_entry_id>
4671

> <s_canvas_Unique_SMILES_Stereo>
[N-]1C(=O)N(C)C(=O)CC1=O

$$$$
Schrodinger_fragment_228
                    3D
 Structure written by MMmdl.
 18 18  0  0  1  0            999 V2000
    3.9206   -0.8719   -0.0260 C   0  0  0  0  0  0
    3.8329   -2.2803    0.0156 N   0  0  0  0  0  0
    2.6217   -3.0035    0.0262 C   0  0  0  0  0  0
    1.4186   -2.2583   -0.0190 N   0  0  0  0  0  0
    1.4745   -0.8721   -0.0649 C   0  0  0  0  0  0
    2.6377   -0.1818   -0.0691 C   0  0  0  0  0  0
    0.3004   -0.1801   -0.1058 O   0  5  0  0  0  0
    5.0121   -0.2909   -0.0220 O   0  0  0  0  0  0
    2.5928   -4.2353    0.0749 O   0  0  0  0  0  0
    5.0907   -3.0004    0.0644 C   0  0  0  0  0  0
    0.2024   -3.0486   -0.0097 C   0  0  0  0  0  0
    2.6336    0.8985   -0.1041 H   0  0  0  0  0  0
    4.9363   -4.0769    0.0023 H   0  0  0  0  0  0
    5.5705   -2.7421    1.0098 H   0  0  0  0  0  0
    5.6891   -2.6727   -0.7875 H   0  0  0  0  0  0
   -0.6724   -2.4019   -0.0545 H   0  0  0  0  0  0
    0.1890   -3.6243    0.9184 H   0  0  0  0  0  0
    0.2236   -3.7002   -0.8861 H   0  0  0  0  0  0
  1  2  1  0  0  0
  1  6  1  0  0  0
  1  8  2  0  0  0
  2  3  1  0  0  0
  2 10  1  0  0  0
  3  4  1  0  0  0
  3  9  2  0  0  0
  4  5  1  0  0  0
  4 11  1  0  0  0
  5  6  2  0  0  0
  5  7  1  0  0  0
  6 12  1  0  0  0
 10 13  1  0  0  0
 10 14  1  0  0  0
 10 15  1  0  0  0
 11 16  1  0  0  0
 11 17  1  0  0  0
 11 18  1  0  0  0
M  CHG  1   7  -1
M  END
> <s_m_entry_name>
Schrodinger_fragment_289

> <i_m_number_of_atoms>
19

> <r_m_molecular_weight>
156.14226

> <s_m_molecular_formula>
C6H8N2O3

> <r_epik_Ionization_Penalty>
  0.0009

> <r_epik_Ionization_Penalty_Charging>
  0.0001

> <r_epik_Ionization_Penalty_Neutral>
  0.0008

> <r_epik_State_Penalty>
  0.0126

> <i_epik_Tot_Q>
-1

> <r_epik_Metal_State_Penalty>
  0.0126

> <b_epik_Metal_Only>
0

> <s_m_entry_id>
4672

> <s_canvas_Unique_SMILES_Stereo>
Cn1c(=O)n(C)c(=O)cc1[O-]

$$$$
Schrodinger_fragment_228_a
                    3D
 Structure written by MMmdl.
 19 19  0  0  1  0            999 V2000
    3.8964   -0.8458    0.0372 C   0  0  0  0  0  0
    3.8256   -2.1996    0.0179 N   0  0  0  0  0  0
    2.6496   -2.8887   -0.0110 C   0  0  0  0  0  0
    1.4703   -2.2057    0.0288 N   0  0  0  0  0  0
    1.3926   -0.8523    0.0484 C   0  0  0  0  0  0
    2.6414    0.0066   -0.1347 C   0  0  0  0  0  0
    0.3162   -0.2521    0.1802 O   0  0  0  0  0  0
    4.9707   -0.2401    0.1604 O   0  0  0  0  0  0
    2.6522   -4.1287   -0.0414 O   0  0  0  0  0  0
    5.0766   -2.9876    0.0661 C   0  0  0  0  0  0
    0.2248   -3.0017    0.0849 C   0  0  0  0  0  0
    2.6423    0.8140    0.5971 H   0  0  0  0  0  0
    2.6355    0.4508   -1.1292 H   0  0  0  0  0  0
    5.0899   -3.7514   -0.7138 H   0  0  0  0  0  0
    5.1660   -3.4933    1.0289 H   0  0  0  0  0  0
    5.9885   -2.4058   -0.0757 H   0  0  0  0  0  0
   -0.6943   -2.4226   -0.0146 H   0  0  0  0  0  0
    0.1624   -3.5384    1.0330 H   0  0  0  0  0  0
    0.1980   -3.7407   -0.7180 H   0  0  0  0  0  0
  1  2  1  0  0  0
  1  6  1  0  0  0
  1  8  2  0  0  0
  2  3  1  0  0  0
  2 10  1  0  0  0
  3  4  1  0  0  0
  3  9  2  0  0  0
  4  5  1  0  0  0
  4 11  1  0  0  0
  5  6  1  0  0  0
  5  7  2  0  0  0
  6 12  1  0  0  0
  6 13  1  0  0  0
 10 14  1  0  0  0
 10 15  1  0  0  0
 10 16  1  0  0  0
 11 17  1  0  0  0
 11 18  1  0  0  0
 11 19  1  0  0  0
M  END
> <s_m_entry_name>
Schrodinger_fragment_289

> <i_m_number_of_atoms>
19

> <r_m_molecular_weight>
156.14226

> <s_m_molecular_formula>
C6H8N2O3

> <r_epik_Ionization_Penalty>
  4.5764

> <r_epik_Ionization_Penalty_Charging>
  0.0000

> <r_epik_Ionization_Penalty_Neutral>
  4.5764

> <r_epik_State_Penalty>
  2.2882

> <i_epik_Tot_Q>
0

> <r_epik_Metal_State_Penalty>
  2.2882

> <b_epik_Metal_Only>
0

> <s_m_entry_id>
4673

> <s_canvas_Unique_SMILES_Stereo>
CN1C(=O)N(C)C(=O)CC1=O

$$$$
Schrodinger_fragment_229
                    3D
 Structure written by MMmdl.
 21 21  0  0  1  0            999 V2000
    3.0148    1.5962    0.4387 C   0  0  0  0  0  0
    2.5322    0.2013   -0.0156 C   0  0  0  0  0  0
    0.1480    0.8923    0.4579 C   0  0  0  0  0  0
   -0.0521    2.3042   -0.1261 C   0  0  0  0  0  0
    1.1116    3.2765    0.1263 C   0  0  0  0  0  0
    2.4783    2.7838   -0.3794 C   0  0  0  0  0  0
    2.7862    1.7435    1.4951 H   0  0  0  0  0  0
    4.1044    1.5979    0.3863 H   0  0  0  0  0  0
    3.1005   -0.1205   -0.8890 H   0  0  0  0  0  0
    2.7570   -0.5212    0.7699 H   0  0  0  0  0  0
    0.4435    0.9187    1.5077 H   0  0  0  0  0  0
   -0.8108    0.3733    0.4283 H   0  0  0  0  0  0
   -0.2608    2.2416   -1.1950 H   0  0  0  0  0  0
   -0.9506    2.7342    0.3185 H   0  0  0  0  0  0
    0.8786    4.2260   -0.3581 H   0  0  0  0  0  0
    1.1752    3.5016    1.1922 H   0  0  0  0  0  0
    3.1848    3.6097   -0.2822 H   0  0  0  0  0  0
    2.4462    2.5474   -1.4440 H   0  0  0  0  0  0
    1.0936    0.0990   -0.3532 N   0  3  0  0  0  0
    0.9642    0.3431   -1.3211 H   0  0  0  0  0  0
    0.8403   -0.8727   -0.2684 H   0  0  0  0  0  0
  1  2  1  0  0  0
  1  6  1  0  0  0
  1  7  1  0  0  0
  1  8  1  0  0  0
  2  9  1  0  0  0
  2 10  1  0  0  0
  2 19  1  0  0  0
  3  4  1  0  0  0
  3 11  1  0  0  0
  3 12  1  0  0  0
  3 19  1  0  0  0
  4  5  1  0  0  0
  4 13  1  0  0  0
  4 14  1  0  0  0
  5  6  1  0  0  0
  5 15  1  0  0  0
  5 16  1  0  0  0
  6 17  1  0  0  0
  6 18  1  0  0  0
 19 20  1  0  0  0
 19 21  1  0  0  0
M  CHG  1  19   1
M  END
> <s_m_entry_name>
Schrodinger_fragment_290

> <i_m_number_of_atoms>
21

> <r_m_molecular_weight>
100.18518

> <s_m_molecular_formula>
C6H14N1

> <r_epik_Ionization_Penalty>
  0.0003

> <r_epik_Ionization_Penalty_Charging>
  0.0003

> <r_epik_Ionization_Penalty_Neutral>
  0.0000

> <r_epik_State_Penalty>
  0.0000

> <i_epik_Tot_Q>
1

> <r_epik_Metal_State_Penalty>
  0.0000

> <b_epik_Metal_Only>
0

> <s_m_entry_id>
4674

> <s_canvas_Unique_SMILES_Stereo>
C1CCC[NH2+]CC1

$$$$
Schrodinger_fragment_230
                    3D
 Structure written by MMmdl.
 24 24  0  0  1  0            999 V2000
    0.1648   -0.8469    0.4620 C   0  0  0  0  0  0
   -0.0061   -2.3088   -0.0004 C   0  0  0  0  0  0
    2.4352   -2.7719   -0.2761 C   0  0  0  0  0  0
    3.0553   -1.5699    0.4593 C   0  0  0  0  0  0
    2.6192   -0.1861   -0.0549 C   0  0  0  0  0  0
    1.1317   -0.0384   -0.4186 C   0  0  0  0  0  0
    0.8325   -4.6105    0.0250 C   0  0  0  0  0  0
   -0.8152   -0.3724    0.3940 H   0  0  0  0  0  0
    0.4420   -0.7887    1.5153 H   0  0  0  0  0  0
   -0.8934   -2.7114    0.4908 H   0  0  0  0  0  0
   -0.2148   -2.3475   -1.0707 H   0  0  0  0  0  0
    2.3324   -2.5835   -1.3459 H   0  0  0  0  0  0
    3.1401   -3.6000   -0.1866 H   0  0  0  0  0  0
    2.8612   -1.6498    1.5299 H   0  0  0  0  0  0
    4.1408   -1.6272    0.3666 H   0  0  0  0  0  0
    2.8781    0.5539    0.7041 H   0  0  0  0  0  0
    3.2142    0.0793   -0.9303 H   0  0  0  0  0  0
    0.9796   -0.3069   -1.4653 H   0  0  0  0  0  0
    0.8720    1.0197   -0.3576 H   0  0  0  0  0  0
    1.6312   -5.2694    0.3668 H   0  0  0  0  0  0
    0.7007   -4.7661   -1.0464 H   0  0  0  0  0  0
   -0.0817   -4.9276    0.5274 H   0  0  0  0  0  0
    1.1426   -3.1930    0.3251 N   0  3  0  0  0  0
    1.2653   -3.1575    1.3259 H   0  0  0  0  0  0
  1  2  1  0  0  0
  1  6  1  0  0  0
  1  8  1  0  0  0
  1  9  1  0  0  0
  2 10  1  0  0  0
  2 11  1  0  0  0
  2 23  1  0  0  0
  3  4  1  0  0  0
  3 12  1  0  0  0
  3 13  1  0  0  0
  3 23  1  0  0  0
  4  5  1  0  0  0
  4 14  1  0  0  0
  4 15  1  0  0  0
  5  6  1  0  0  0
  5 16  1  0  0  0
  5 17  1  0  0  0
  6 18  1  0  0  0
  6 19  1  0  0  0
  7 20  1  0  0  0
  7 21  1  0  0  0
  7 22  1  0  0  0
  7 23  1  0  0  0
 23 24  1  0  0  0
M  CHG  1  23   1
M  END
> <s_m_entry_name>
Schrodinger_fragment_291

> <i_m_number_of_atoms>
24

> <r_m_molecular_weight>
114.21227

> <s_m_molecular_formula>
C7H16N1

> <r_epik_Ionization_Penalty>
  0.0004

> <r_epik_Ionization_Penalty_Charging>
  0.0004

> <r_epik_Ionization_Penalty_Neutral>
  0.0000

> <r_epik_State_Penalty>
  0.0000

> <i_epik_Tot_Q>
1

> <r_epik_Metal_State_Penalty>
  0.0000

> <b_epik_Metal_Only>
0

> <s_m_entry_id>
4675

> <s_canvas_Unique_SMILES_Stereo>
C[N@H+]1CCCCCC1

$$$$
Schrodinger_fragment_231
                    3D
 Structure written by MMmdl.
 19 19  0  0  1  0            999 V2000
    1.3205    2.2223   -0.5536 C   0  0  0  0  0  0
    1.2195    0.8014    0.0077 C   0  0  0  0  0  0
    2.3109    0.0292    0.0330 N   0  0  0  0  0  0
    3.6531    0.3904   -0.4135 C   0  0  0  0  0  0
    4.2618    1.5419    0.4081 C   0  0  0  0  0  0
    3.7271    2.9328    0.0278 C   0  0  0  0  0  0
    2.2261    3.1362    0.2926 C   0  0  0  0  0  0
    0.1395    0.3815    0.4211 O   0  0  0  0  0  0
    1.6534    2.1903   -1.5916 H   0  0  0  0  0  0
    0.3153    2.6454   -0.5763 H   0  0  0  0  0  0
    2.1975   -0.9069    0.4005 H   0  0  0  0  0  0
    4.2798   -0.4957   -0.3042 H   0  0  0  0  0  0
    3.6492    0.6280   -1.4786 H   0  0  0  0  0  0
    4.1256    1.3602    1.4754 H   0  0  0  0  0  0
    5.3408    1.5421    0.2461 H   0  0  0  0  0  0
    4.2839    3.6836    0.5905 H   0  0  0  0  0  0
    3.9439    3.1326   -1.0228 H   0  0  0  0  0  0
    1.9734    4.1739    0.0716 H   0  0  0  0  0  0
    2.0126    3.0010    1.3543 H   0  0  0  0  0  0
  1  2  1  0  0  0
  1  7  1  0  0  0
  1  9  1  0  0  0
  1 10  1  0  0  0
  2  3  1  0  0  0
  2  8  2  0  0  0
  3  4  1  0  0  0
  3 11  1  0  0  0
  4  5  1  0  0  0
  4 12  1  0  0  0
  4 13  1  0  0  0
  5  6  1  0  0  0
  5 14  1  0  0  0
  5 15  1  0  0  0
  6  7  1  0  0  0
  6 16  1  0  0  0
  6 17  1  0  0  0
  7 18  1  0  0  0
  7 19  1  0  0  0
M  END
> <s_m_entry_name>
Schrodinger_fragment_292

> <i_m_number_of_atoms>
19

> <r_m_molecular_weight>
113.16067

> <s_m_molecular_formula>
C6H11N1O1

> <r_epik_Ionization_Penalty>
  0.0000

> <r_epik_Ionization_Penalty_Charging>
  0.0000

> <r_epik_Ionization_Penalty_Neutral>
  0.0000

> <r_epik_State_Penalty>
  0.0000

> <i_epik_Tot_Q>
0

> <r_epik_Metal_State_Penalty>
  0.0000

> <b_epik_Metal_Only>
0

> <s_m_entry_id>
4676

> <s_canvas_Unique_SMILES_Stereo>
O=C1CCCCCN1

$$$$
Schrodinger_fragment_232
                    3D
 Structure written by MMmdl.
 22 22  0  0  1  0            999 V2000
    1.5148   -0.8746   -0.4802 C   0  0  0  0  0  0
    1.3609   -2.3320   -0.0295 C   0  0  0  0  0  0
    2.4326   -3.1556   -0.0880 N   0  0  0  0  0  0
    3.7410   -2.7483   -0.6182 C   0  0  0  0  0  0
    4.4479   -1.7252    0.2904 C   0  0  0  0  0  0
    3.9542   -0.2821    0.0970 C   0  0  0  0  0  0
    2.4670   -0.0670    0.4226 C   0  0  0  0  0  0
    0.2574   -2.7073    0.3790 O   0  0  0  0  0  0
    2.3405   -4.5431    0.3786 C   0  0  0  0  0  0
    1.8256   -0.8327   -1.5244 H   0  0  0  0  0  0
    0.5278   -0.4117   -0.4492 H   0  0  0  0  0  0
    4.3857   -3.6213   -0.7284 H   0  0  0  0  0  0
    3.6330   -2.3566   -1.6310 H   0  0  0  0  0  0
    4.3607   -2.0232    1.3366 H   0  0  0  0  0  0
    5.5156   -1.7464    0.0667 H   0  0  0  0  0  0
    4.5501    0.3787    0.7284 H   0  0  0  0  0  0
    4.1514    0.0353   -0.9283 H   0  0  0  0  0  0
    2.2377    0.9932    0.3090 H   0  0  0  0  0  0
    2.2784   -0.2976    1.4727 H   0  0  0  0  0  0
    3.3111   -4.9435    0.6727 H   0  0  0  0  0  0
    1.9374   -5.1783   -0.4107 H   0  0  0  0  0  0
    1.6920   -4.6372    1.2512 H   0  0  0  0  0  0
  1  2  1  0  0  0
  1  7  1  0  0  0
  1 10  1  0  0  0
  1 11  1  0  0  0
  2  3  1  0  0  0
  2  8  2  0  0  0
  3  4  1  0  0  0
  3  9  1  0  0  0
  4  5  1  0  0  0
  4 12  1  0  0  0
  4 13  1  0  0  0
  5  6  1  0  0  0
  5 14  1  0  0  0
  5 15  1  0  0  0
  6  7  1  0  0  0
  6 16  1  0  0  0
  6 17  1  0  0  0
  7 18  1  0  0  0
  7 19  1  0  0  0
  9 20  1  0  0  0
  9 21  1  0  0  0
  9 22  1  0  0  0
M  END
> <s_m_entry_name>
Schrodinger_fragment_293

> <i_m_number_of_atoms>
22

> <r_m_molecular_weight>
127.18776

> <s_m_molecular_formula>
C7H13N1O1

> <r_epik_Ionization_Penalty>
  0.0000

> <r_epik_Ionization_Penalty_Charging>
  0.0000

> <r_epik_Ionization_Penalty_Neutral>
  0.0000

> <r_epik_State_Penalty>
  0.0000

> <i_epik_Tot_Q>
0

> <r_epik_Metal_State_Penalty>
  0.0000

> <b_epik_Metal_Only>
0

> <s_m_entry_id>
4677

> <s_canvas_Unique_SMILES_Stereo>
CN1CCCCCC1=O

$$$$
Schrodinger_fragment_233
                    3D
 Structure written by MMmdl.
 15 16  0  0  1  0            999 V2000
    2.2867    2.6611   -0.4522 C   0  0  1  0  0  0
    2.3338    1.2105   -0.4376 N   0  0  0  0  0  0
    1.0367    1.0518   -0.0248 C   0  0  0  0  0  0
    0.8548    2.5674    0.0836 C   0  0  0  0  0  0
    3.7704    3.0441    0.5473 S   0  0  0  0  0  0
    4.4022    1.3257    0.6399 C   0  0  0  0  0  0
    3.5426    0.4372   -0.2770 C   0  0  0  0  0  0
    0.3923    0.0570    0.2382 O   0  0  0  0  0  0
    2.3527    3.0856   -1.4566 H   0  0  0  0  0  0
    0.7474    2.9535    1.0967 H   0  0  0  0  0  0
    0.1152    3.0012   -0.5888 H   0  0  0  0  0  0
    5.4582    1.2794    0.3720 H   0  0  0  0  0  0
    4.3151    0.9861    1.6727 H   0  0  0  0  0  0
    3.3536   -0.5448    0.1596 H   0  0  0  0  0  0
    4.0159    0.2977   -1.2495 H   0  0  0  0  0  0
  1  2  1  0  0  0
  1  4  1  0  0  0
  1  5  1  0  0  0
  1  9  1  0  0  0
  2  3  1  0  0  0
  2  7  1  0  0  0
  3  4  1  0  0  0
  3  8  2  0  0  0
  4 10  1  0  0  0
  4 11  1  0  0  0
  5  6  1  0  0  0
  6  7  1  0  0  0
  6 12  1  0  0  0
  6 13  1  0  0  0
  7 14  1  0  0  0
  7 15  1  0  0  0
M  END
> <s_m_entry_name>
Schrodinger_fragment_294

> <i_m_number_of_atoms>
15

> <r_m_molecular_weight>
129.18164

> <s_m_molecular_formula>
C5H7N1O1S1

> <r_epik_Ionization_Penalty>
  0.0000

> <r_epik_Ionization_Penalty_Charging>
  0.0000

> <r_epik_Ionization_Penalty_Neutral>
  0.0000

> <r_epik_State_Penalty>
  0.0000

> <i_epik_Tot_Q>
0

> <r_epik_Metal_State_Penalty>
  0.0000

> <b_epik_Metal_Only>
0

> <s_m_entry_id>
4678

> <s_canvas_Unique_SMILES_Stereo>
C1C(=O)N([C@@H]12)CCS2

$$$$
Schrodinger_fragment_234
                    3D
 Structure written by MMmdl.
 15 16  0  0  1  0            999 V2000
    2.2638    2.7021    0.5001 C   0  0  2  0  0  0
    2.3877    1.2560    0.4903 N   0  0  0  0  0  0
    1.1230    1.0296    0.0136 C   0  0  0  0  0  0
    0.8674    2.5337   -0.1064 C   0  0  0  0  0  0
    3.7734    3.1635   -0.4248 S   0  0  0  0  0  0
    4.4985    1.4808   -0.4829 C   0  0  0  0  0  0
    3.6420    0.5475    0.3915 C   0  0  0  0  0  0
    0.5457    0.0027   -0.2793 O   0  0  0  0  0  0
    2.2571    3.1285    1.5058 H   0  0  0  0  0  0
    0.0733    2.9275    0.5274 H   0  0  0  0  0  0
    0.7905    2.9144   -1.1243 H   0  0  0  0  0  0
    4.4810    1.1380   -1.5181 H   0  0  0  0  0  0
    5.5408    1.4899   -0.1625 H   0  0  0  0  0  0
    4.0728    0.4322    1.3867 H   0  0  0  0  0  0
    3.5269   -0.4427   -0.0523 H   0  0  0  0  0  0
  1  2  1  0  0  0
  1  4  1  0  0  0
  1  5  1  0  0  0
  1  9  1  0  0  0
  2  3  1  0  0  0
  2  7  1  0  0  0
  3  4  1  0  0  0
  3  8  2  0  0  0
  4 10  1  0  0  0
  4 11  1  0  0  0
  5  6  1  0  0  0
  6  7  1  0  0  0
  6 12  1  0  0  0
  6 13  1  0  0  0
  7 14  1  0  0  0
  7 15  1  0  0  0
M  END
> <s_m_entry_name>
Schrodinger_fragment_295

> <i_m_number_of_atoms>
15

> <r_m_molecular_weight>
129.18164

> <s_m_molecular_formula>
C5H7N1O1S1

> <r_epik_Ionization_Penalty>
  0.0000

> <r_epik_Ionization_Penalty_Charging>
  0.0000

> <r_epik_Ionization_Penalty_Neutral>
  0.0000

> <r_epik_State_Penalty>
  0.0000

> <i_epik_Tot_Q>
0

> <r_epik_Metal_State_Penalty>
  0.0000

> <b_epik_Metal_Only>
0

> <s_m_entry_id>
4679

> <s_canvas_Unique_SMILES_Stereo>
C1C(=O)N([C@H]12)CCS2

$$$$
Schrodinger_fragment_235
                    3D
 Structure written by MMmdl.
 13 14  0  0  1  0            999 V2000
    0.8664    2.4791    0.1789 C   0  0  0  0  0  0
    1.0799    0.9621    0.1001 C   0  0  0  0  0  0
    2.3570    1.1363   -0.3731 N   0  0  0  0  0  0
    2.2746    2.5929   -0.4110 C   0  0  2  0  0  0
    3.5564    0.5024   -0.1111 C   0  0  0  0  0  0
    4.4547    1.3526    0.4026 C   0  0  0  0  0  0
    3.8106    2.9980    0.5159 S   0  0  0  0  0  0
    0.4789   -0.0378    0.4398 O   0  0  0  0  0  0
    0.0937    2.8794   -0.4764 H   0  0  0  0  0  0
    0.7887    2.8887    1.1853 H   0  0  0  0  0  0
    2.2968    2.9946   -1.4262 H   0  0  0  0  0  0
    3.6384   -0.5584   -0.3064 H   0  0  0  0  0  0
    5.4618    1.1159    0.7188 H   0  0  0  0  0  0
  1  2  1  0  0  0
  1  4  1  0  0  0
  1  9  1  0  0  0
  1 10  1  0  0  0
  2  3  1  0  0  0
  2  8  2  0  0  0
  3  4  1  0  0  0
  3  5  1  0  0  0
  4  7  1  0  0  0
  4 11  1  0  0  0
  5  6  2  0  0  0
  5 12  1  0  0  0
  6  7  1  0  0  0
  6 13  1  0  0  0
M  END
> <s_m_entry_name>
Schrodinger_fragment_296

> <i_m_number_of_atoms>
13

> <r_m_molecular_weight>
127.1657

> <s_m_molecular_formula>
C5H5N1O1S1

> <r_epik_Ionization_Penalty>
  0.0000

> <r_epik_Ionization_Penalty_Charging>
  0.0000

> <r_epik_Ionization_Penalty_Neutral>
  0.0000

> <r_epik_State_Penalty>
  0.0000

> <i_epik_Tot_Q>
0

> <r_epik_Metal_State_Penalty>
  0.0000

> <b_epik_Metal_Only>
0

> <s_m_entry_id>
4680

> <s_canvas_Unique_SMILES_Stereo>
C1C(=O)N([C@@H]12)C=CS2

$$$$
Schrodinger_fragment_236
                    3D
 Structure written by MMmdl.
 13 14  0  0  1  0            999 V2000
    0.9143    2.4209   -0.1757 C   0  0  0  0  0  0
    1.2228    0.9328    0.0344 C   0  0  0  0  0  0
    2.4965    1.2260    0.4546 N   0  0  0  0  0  0
    2.3222    2.6725    0.3710 C   0  0  1  0  0  0
    3.7288    0.6470    0.2189 C   0  0  0  0  0  0
    4.5629    1.5046   -0.3829 C   0  0  0  0  0  0
    3.8137    3.0914   -0.6198 S   0  0  0  0  0  0
    0.6775   -0.1282   -0.1966 O   0  0  0  0  0  0
    0.7953    2.7307   -1.2132 H   0  0  0  0  0  0
    0.1288    2.8325    0.4570 H   0  0  0  0  0  0
    2.3357    3.1598    1.3482 H   0  0  0  0  0  0
    3.8809   -0.3866    0.4995 H   0  0  0  0  0  0
    5.5778    1.3049   -0.6998 H   0  0  0  0  0  0
  1  2  1  0  0  0
  1  4  1  0  0  0
  1  9  1  0  0  0
  1 10  1  0  0  0
  2  3  1  0  0  0
  2  8  2  0  0  0
  3  4  1  0  0  0
  3  5  1  0  0  0
  4  7  1  0  0  0
  4 11  1  0  0  0
  5  6  2  0  0  0
  5 12  1  0  0  0
  6  7  1  0  0  0
  6 13  1  0  0  0
M  END
> <s_m_entry_name>
Schrodinger_fragment_297

> <i_m_number_of_atoms>
13

> <r_m_molecular_weight>
127.1657

> <s_m_molecular_formula>
C5H5N1O1S1

> <r_epik_Ionization_Penalty>
  0.0000

> <r_epik_Ionization_Penalty_Charging>
  0.0000

> <r_epik_Ionization_Penalty_Neutral>
  0.0000

> <r_epik_State_Penalty>
  0.0000

> <i_epik_Tot_Q>
0

> <r_epik_Metal_State_Penalty>
  0.0000

> <b_epik_Metal_Only>
0

> <s_m_entry_id>
4681

> <s_canvas_Unique_SMILES_Stereo>
C1C(=O)N([C@H]12)C=CS2

$$$$
Schrodinger_fragment_237
                    3D
 Structure written by MMmdl.
 16 17  0  0  1  0            999 V2000
    0.8137    2.4376   -0.0585 C   0  0  0  0  0  0
    1.0745    0.9453    0.1642 C   0  0  0  0  0  0
    2.3977    1.0895   -0.1743 N   0  0  0  0  0  0
    2.2785    2.5099   -0.4951 C   0  0  2  0  0  0
    3.5259    0.2881   -0.0927 C   0  0  0  0  0  0
    4.7460    0.8387    0.0402 C   0  0  0  0  0  0
    5.0204    2.3384    0.0692 C   0  0  0  0  0  0
    3.5641    3.3625    0.4940 S   0  0  0  0  0  0
    0.4410   -0.0214    0.5391 O   0  0  0  0  0  0
    0.1144    2.6780   -0.8586 H   0  0  0  0  0  0
    0.6021    3.0124    0.8424 H   0  0  0  0  0  0
    2.3950    2.7202   -1.5607 H   0  0  0  0  0  0
    3.3325   -0.7753   -0.1368 H   0  0  0  0  0  0
    5.6140    0.1950    0.0847 H   0  0  0  0  0  0
    5.8106    2.5430    0.7921 H   0  0  0  0  0  0
    5.3991    2.6381   -0.9083 H   0  0  0  0  0  0
  1  2  1  0  0  0
  1  4  1  0  0  0
  1 10  1  0  0  0
  1 11  1  0  0  0
  2  3  1  0  0  0
  2  9  2  0  0  0
  3  4  1  0  0  0
  3  5  1  0  0  0
  4  8  1  0  0  0
  4 12  1  0  0  0
  5  6  2  0  0  0
  5 13  1  0  0  0
  6  7  1  0  0  0
  6 14  1  0  0  0
  7  8  1  0  0  0
  7 15  1  0  0  0
  7 16  1  0  0  0
M  END
> <s_m_entry_name>
Schrodinger_fragment_298

> <i_m_number_of_atoms>
16

> <r_m_molecular_weight>
141.19279

> <s_m_molecular_formula>
C6H7N1O1S1

> <r_epik_Ionization_Penalty>
  0.0000

> <r_epik_Ionization_Penalty_Charging>
  0.0000

> <r_epik_Ionization_Penalty_Neutral>
  0.0000

> <r_epik_State_Penalty>
  0.0000

> <i_epik_Tot_Q>
0

> <r_epik_Metal_State_Penalty>
  0.0000

> <b_epik_Metal_Only>
0

> <s_m_entry_id>
4682

> <s_canvas_Unique_SMILES_Stereo>
C1C(=O)N([C@@H]12)C=CCS2

$$$$
Schrodinger_fragment_238
                    3D
 Structure written by MMmdl.
 16 17  0  0  1  0            999 V2000
    0.8182    2.3963   -0.0409 C   0  0  0  0  0  0
    1.1516    0.9022   -0.0725 C   0  0  0  0  0  0
    2.4738    1.1550    0.2000 N   0  0  0  0  0  0
    2.2877    2.5979    0.3351 C   0  0  1  0  0  0
    3.6405    0.4062    0.1889 C   0  0  0  0  0  0
    4.8262    0.9939   -0.0527 C   0  0  0  0  0  0
    5.0202    2.4882   -0.2877 C   0  0  0  0  0  0
    3.5017    3.3741   -0.7975 S   0  0  0  0  0  0
    0.5604   -0.1358   -0.2950 O   0  0  0  0  0  0
    0.5536    2.8345   -1.0025 H   0  0  0  0  0  0
    0.1275    2.7068    0.7424 H   0  0  0  0  0  0
    2.4196    2.9528    1.3596 H   0  0  0  0  0  0
    3.5046   -0.6501    0.3784 H   0  0  0  0  0  0
    5.7256    0.3934   -0.0386 H   0  0  0  0  0  0
    5.4070    2.9337    0.6293 H   0  0  0  0  0  0
    5.7800    2.6326   -1.0563 H   0  0  0  0  0  0
  1  2  1  0  0  0
  1  4  1  0  0  0
  1 10  1  0  0  0
  1 11  1  0  0  0
  2  3  1  0  0  0
  2  9  2  0  0  0
  3  4  1  0  0  0
  3  5  1  0  0  0
  4  8  1  0  0  0
  4 12  1  0  0  0
  5  6  2  0  0  0
  5 13  1  0  0  0
  6  7  1  0  0  0
  6 14  1  0  0  0
  7  8  1  0  0  0
  7 15  1  0  0  0
  7 16  1  0  0  0
M  END
> <s_m_entry_name>
Schrodinger_fragment_299

> <i_m_number_of_atoms>
16

> <r_m_molecular_weight>
141.19279

> <s_m_molecular_formula>
C6H7N1O1S1

> <r_epik_Ionization_Penalty>
  0.0000

> <r_epik_Ionization_Penalty_Charging>
  0.0000

> <r_epik_Ionization_Penalty_Neutral>
  0.0000

> <r_epik_State_Penalty>
  0.0000

> <i_epik_Tot_Q>
0

> <r_epik_Metal_State_Penalty>
  0.0000

> <b_epik_Metal_Only>
0

> <s_m_entry_id>
4683

> <s_canvas_Unique_SMILES_Stereo>
C1C(=O)N([C@H]12)C=CCS2

$$$$
Schrodinger_fragment_239
                    3D
 Structure written by MMmdl.
 18 19  0  0  1  0            999 V2000
    3.0194    5.7540   -1.0537 C   0  0  0  0  0  0
    1.5252    5.8150   -0.7180 C   0  0  0  0  0  0
    1.4337    4.4460   -0.6676 N   0  0  0  0  0  0
    2.8539    4.2375   -0.9217 C   0  0  2  0  0  0
    0.5112    3.5514   -0.1497 C   0  0  0  0  0  0
    0.9163    2.4684    0.5439 C   0  0  0  0  0  0
    2.3707    2.0681    0.8268 C   0  0  0  0  0  0
    3.5444    3.4788    0.6018 S   0  0  0  0  0  0
    0.7002    6.6809   -0.5082 O   0  0  0  0  0  0
    4.8950    2.9556    0.3302 O   0  0  0  0  0  0
    3.3513    4.4239    1.7175 O   0  0  0  0  0  0
    3.2808    6.0693   -2.0630 H   0  0  0  0  0  0
    3.6907    6.1881   -0.3135 H   0  0  0  0  0  0
    3.0870    3.6496   -1.8101 H   0  0  0  0  0  0
   -0.5232    3.8030   -0.3471 H   0  0  0  0  0  0
    0.1653    1.7857    0.9165 H   0  0  0  0  0  0
    2.4861    1.7063    1.8463 H   0  0  0  0  0  0
    2.6735    1.2696    0.1524 H   0  0  0  0  0  0
  1  2  1  0  0  0
  1  4  1  0  0  0
  1 12  1  0  0  0
  1 13  1  0  0  0
  2  3  1  0  0  0
  2  9  2  0  0  0
  3  4  1  0  0  0
  3  5  1  0  0  0
  4  8  1  0  0  0
  4 14  1  0  0  0
  5  6  2  0  0  0
  5 15  1  0  0  0
  6  7  1  0  0  0
  6 16  1  0  0  0
  7  8  1  0  0  0
  7 17  1  0  0  0
  7 18  1  0  0  0
  8 10  2  0  0  0
  8 11  2  0  0  0
M  END
> <s_m_entry_name>
Schrodinger_fragment_300

> <i_m_number_of_atoms>
18

> <r_m_molecular_weight>
173.19159

> <s_m_molecular_formula>
C6H7N1O3S1

> <r_epik_Ionization_Penalty>
  0.0000

> <r_epik_Ionization_Penalty_Charging>
  0.0000

> <r_epik_Ionization_Penalty_Neutral>
  0.0000

> <r_epik_State_Penalty>
  0.0000

> <i_epik_Tot_Q>
0

> <r_epik_Metal_State_Penalty>
  0.0000

> <b_epik_Metal_Only>
0

> <s_m_entry_id>
4684

> <s_canvas_Unique_SMILES_Stereo>
C1C(=O)N([C@@H]12)C=CCS2(=O)=O

$$$$
Schrodinger_fragment_240
                    3D
 Structure written by MMmdl.
 18 19  0  0  1  0            999 V2000
    0.8988    2.4959    0.2096 C   0  0  0  0  0  0
    1.1958    1.0502   -0.2040 C   0  0  0  0  0  0
    2.4754    1.1239    0.2883 N   0  0  0  0  0  0
    2.3559    2.5228    0.6800 C   0  0  1  0  0  0
    3.6270    0.3726    0.1193 C   0  0  0  0  0  0
    4.8197    0.9729   -0.0678 C   0  0  0  0  0  0
    5.0765    2.4860   -0.0941 C   0  0  0  0  0  0
    3.5295    3.4576   -0.3795 S   0  0  0  0  0  0
    0.6115    0.1584   -0.7850 O   0  0  0  0  0  0
    3.1245    3.2799   -1.7866 O   0  0  0  0  0  0
    3.7017    4.8218    0.1505 O   0  0  0  0  0  0
    0.6877    3.1892   -0.6039 H   0  0  0  0  0  0
    0.1844    2.6072    1.0242 H   0  0  0  0  0  0
    2.5152    2.7256    1.7396 H   0  0  0  0  0  0
    3.4764   -0.6992    0.1478 H   0  0  0  0  0  0
    5.6970    0.3507   -0.1783 H   0  0  0  0  0  0
    5.5032    2.8063    0.8543 H   0  0  0  0  0  0
    5.7784    2.7503   -0.8821 H   0  0  0  0  0  0
  1  2  1  0  0  0
  1  4  1  0  0  0
  1 12  1  0  0  0
  1 13  1  0  0  0
  2  3  1  0  0  0
  2  9  2  0  0  0
  3  4  1  0  0  0
  3  5  1  0  0  0
  4  8  1  0  0  0
  4 14  1  0  0  0
  5  6  2  0  0  0
  5 15  1  0  0  0
  6  7  1  0  0  0
  6 16  1  0  0  0
  7  8  1  0  0  0
  7 17  1  0  0  0
  7 18  1  0  0  0
  8 10  2  0  0  0
  8 11  2  0  0  0
M  END
> <s_m_entry_name>
Schrodinger_fragment_301

> <i_m_number_of_atoms>
18

> <r_m_molecular_weight>
173.19159

> <s_m_molecular_formula>
C6H7N1O3S1

> <r_epik_Ionization_Penalty>
  0.0000

> <r_epik_Ionization_Penalty_Charging>
  0.0000

> <r_epik_Ionization_Penalty_Neutral>
  0.0000

> <r_epik_State_Penalty>
  0.0000

> <i_epik_Tot_Q>
0

> <r_epik_Metal_State_Penalty>
  0.0000

> <b_epik_Metal_Only>
0

> <s_m_entry_id>
4685

> <s_canvas_Unique_SMILES_Stereo>
C1C(=O)N([C@H]12)C=CCS2(=O)=O

$$$$
Schrodinger_fragment_241
                    3D
 Structure written by MMmdl.
 20 21  0  0  1  0            999 V2000
    2.1876    1.8466    0.3319 C   0  0  1  0  0  0
    2.2130    0.4874   -0.3059 C   0  0  1  0  0  0
    3.5537    0.0461    0.0100 N   0  0  0  0  0  0
    4.3532    1.1249   -0.0113 C   0  0  0  0  0  0
    3.5282    2.4236   -0.1150 C   0  0  0  0  0  0
   -0.0078    1.1497    0.0682 C   0  0  0  0  0  0
    0.9264   -0.0895    0.2588 C   0  0  0  0  0  0
    5.5816    1.1002    0.0642 O   0  0  0  0  0  0
    2.1958    1.7674    1.4240 H   0  0  0  0  0  0
    2.1286    0.5526   -1.3956 H   0  0  0  0  0  0
    3.8570   -0.9189    0.0305 H   0  0  0  0  0  0
    3.5164    2.7816   -1.1446 H   0  0  0  0  0  0
    3.8953    3.2075    0.5473 H   0  0  0  0  0  0
   -0.6119    1.0528   -0.8347 H   0  0  0  0  0  0
   -0.6928    1.2536    0.9105 H   0  0  0  0  0  0
    0.5770   -0.9705   -0.2802 H   0  0  0  0  0  0
    1.0312   -0.3458    1.3142 H   0  0  0  0  0  0
    0.8696    2.3525   -0.0575 N   0  3  0  0  0  0
    0.5617    3.1057    0.5362 H   0  0  0  0  0  0
    0.8739    2.6664   -1.0142 H   0  0  0  0  0  0
  1  2  1  0  0  0
  1  5  1  0  0  0
  1  9  1  0  0  0
  1 18  1  0  0  0
  2  3  1  0  0  0
  2  7  1  0  0  0
  2 10  1  0  0  0
  3  4  1  0  0  0
  3 11  1  0  0  0
  4  5  1  0  0  0
  4  8  2  0  0  0
  5 12  1  0  0  0
  5 13  1  0  0  0
  6  7  1  0  0  0
  6 14  1  0  0  0
  6 15  1  0  0  0
  6 18  1  0  0  0
  7 16  1  0  0  0
  7 17  1  0  0  0
 18 19  1  0  0  0
 18 20  1  0  0  0
M  CHG  1  18   1
M  END
> <s_m_entry_name>
Schrodinger_fragment_302

> <i_m_number_of_atoms>
20

> <r_m_molecular_weight>
127.16737

> <s_m_molecular_formula>
C6H11N2O1

> <r_epik_Ionization_Penalty>
  0.0106

> <r_epik_Ionization_Penalty_Charging>
  0.0106

> <r_epik_Ionization_Penalty_Neutral>
  0.0000

> <r_epik_State_Penalty>
  0.0000

> <i_epik_Tot_Q>
1

> <r_epik_Metal_State_Penalty>
  0.0000

> <b_epik_Metal_Only>
0

> <s_m_entry_id>
4686

> <s_canvas_Unique_SMILES_Stereo>
N1C(=O)C[C@H]([C@@H]12)[NH2+]CC2

$$$$
Schrodinger_fragment_242
                    3D
 Structure written by MMmdl.
 23 24  0  0  1  0            999 V2000
    2.2387   -0.9965    0.3035 C   0  0  1  0  0  0
    2.2382   -2.3672   -0.3096 C   0  0  1  0  0  0
    3.5979   -2.7956   -0.0550 N   0  0  0  0  0  0
    4.3918   -1.7059   -0.1389 C   0  0  0  0  0  0
    3.5474   -0.4188   -0.2269 C   0  0  0  0  0  0
    0.0343   -1.7070    0.1710 C   0  0  0  0  0  0
    0.9839   -2.9380    0.3326 C   0  0  0  0  0  0
    5.6259   -1.7062   -0.1283 O   0  0  0  0  0  0
    4.0041   -4.1937   -0.0039 C   0  0  0  0  0  0
    2.3080   -1.0557    1.3949 H   0  0  0  0  0  0
    2.0986   -2.3220   -1.3944 H   0  0  0  0  0  0
    3.4772   -0.0861   -1.2625 H   0  0  0  0  0  0
    3.9415    0.3833    0.3966 H   0  0  0  0  0  0
   -0.6151   -1.8218   -0.6977 H   0  0  0  0  0  0
   -0.6068   -1.5922    1.0458 H   0  0  0  0  0  0
    0.6117   -3.8306   -0.1710 H   0  0  0  0  0  0
    1.1468   -3.1758    1.3852 H   0  0  0  0  0  0
    4.7784   -4.3422    0.7499 H   0  0  0  0  0  0
    4.4019   -4.5090   -0.9690 H   0  0  0  0  0  0
    3.1621   -4.8394    0.2459 H   0  0  0  0  0  0
    0.8973   -0.5027   -0.0203 N   0  3  0  0  0  0
    0.6170    0.2576    0.5786 H   0  0  0  0  0  0
    0.8444   -0.2014   -0.9798 H   0  0  0  0  0  0
  1  2  1  0  0  0
  1  5  1  0  0  0
  1 10  1  0  0  0
  1 21  1  0  0  0
  2  3  1  0  0  0
  2  7  1  0  0  0
  2 11  1  0  0  0
  3  4  1  0  0  0
  3  9  1  0  0  0
  4  5  1  0  0  0
  4  8  2  0  0  0
  5 12  1  0  0  0
  5 13  1  0  0  0
  6  7  1  0  0  0
  6 14  1  0  0  0
  6 15  1  0  0  0
  6 21  1  0  0  0
  7 16  1  0  0  0
  7 17  1  0  0  0
  9 18  1  0  0  0
  9 19  1  0  0  0
  9 20  1  0  0  0
 21 22  1  0  0  0
 21 23  1  0  0  0
M  CHG  1  21   1
M  END
> <s_m_entry_name>
Schrodinger_fragment_303

> <i_m_number_of_atoms>
23

> <r_m_molecular_weight>
141.19446

> <s_m_molecular_formula>
C7H13N2O1

> <r_epik_Ionization_Penalty>
  0.0072

> <r_epik_Ionization_Penalty_Charging>
  0.0072

> <r_epik_Ionization_Penalty_Neutral>
  0.0000

> <r_epik_State_Penalty>
  0.0000

> <i_epik_Tot_Q>
1

> <r_epik_Metal_State_Penalty>
  0.0000

> <b_epik_Metal_Only>
0

> <s_m_entry_id>
4687

> <s_canvas_Unique_SMILES_Stereo>
CN1C(=O)C[C@H]([C@@H]12)[NH2+]CC2

$$$$
Schrodinger_fragment_243
                    3D
 Structure written by MMmdl.
 26 27  0  0  1  0            999 V2000
    2.2520   -0.9897    0.6340 C   0  0  1  0  0  0
    2.1706   -2.2678   -0.1505 C   0  0  1  0  0  0
    3.5417   -2.7295   -0.0824 N   0  0  0  0  0  0
    4.3442   -1.6427   -0.0884 C   0  0  0  0  0  0
    3.5200   -0.3500    0.0717 C   0  0  0  0  0  0
    0.0260   -1.6708    0.5850 C   0  0  0  0  0  0
    0.9747   -2.9102    0.5305 C   0  0  0  0  0  0
    5.5742   -1.6522   -0.1861 O   0  0  0  0  0  0
    3.9290   -4.1236   -0.2515 C   0  0  0  0  0  0
    0.6157    0.4781   -0.5675 C   0  0  0  0  0  0
    2.4329   -1.2041    1.6927 H   0  0  0  0  0  0
    1.9322   -2.0837   -1.2022 H   0  0  0  0  0  0
    3.3780    0.1165   -0.9027 H   0  0  0  0  0  0
    3.9807    0.3576    0.7604 H   0  0  0  0  0  0
   -0.6522   -1.6793   -0.2699 H   0  0  0  0  0  0
   -0.5934   -1.6902    1.4822 H   0  0  0  0  0  0
    0.5534   -3.7418   -0.0350 H   0  0  0  0  0  0
    1.2250   -3.2633    1.5323 H   0  0  0  0  0  0
    4.7253   -4.3879    0.4454 H   0  0  0  0  0  0
    4.2910   -4.2970   -1.2654 H   0  0  0  0  0  0
    3.0869   -4.7919   -0.0711 H   0  0  0  0  0  0
   -0.4200    0.8175   -0.5420 H   0  0  0  0  0  0
    0.7893    0.0005   -1.5320 H   0  0  0  0  0  0
    1.2504    1.3622   -0.5056 H   0  0  0  0  0  0
    0.8860   -0.4421    0.5611 N   0  3  2  0  0  0
    0.7145    0.0793    1.4092 H   0  0  0  0  0  0
  1  2  1  0  0  0
  1  5  1  0  0  0
  1 11  1  0  0  0
  1 25  1  0  0  0
  2  3  1  0  0  0
  2  7  1  0  0  0
  2 12  1  0  0  0
  3  4  1  0  0  0
  3  9  1  0  0  0
  4  5  1  0  0  0
  4  8  2  0  0  0
  5 13  1  0  0  0
  5 14  1  0  0  0
  6  7  1  0  0  0
  6 15  1  0  0  0
  6 16  1  0  0  0
  6 25  1  0  0  0
  7 17  1  0  0  0
  7 18  1  0  0  0
  9 19  1  0  0  0
  9 20  1  0  0  0
  9 21  1  0  0  0
 10 22  1  0  0  0
 10 23  1  0  0  0
 10 24  1  0  0  0
 10 25  1  0  0  0
 25 26  1  0  0  0
M  CHG  1  25   1
M  END
> <s_m_entry_name>
Schrodinger_fragment_304

> <i_m_number_of_atoms>
26

> <r_m_molecular_weight>
155.22155

> <s_m_molecular_formula>
C8H15N2O1

> <r_epik_Ionization_Penalty>
  0.0024

> <r_epik_Ionization_Penalty_Charging>
  0.0024

> <r_epik_Ionization_Penalty_Neutral>
  0.0000

> <r_epik_State_Penalty>
  0.0000

> <i_epik_Tot_Q>
1

> <r_epik_Metal_State_Penalty>
  0.0000

> <b_epik_Metal_Only>
0

> <s_m_entry_id>
4688

> <s_canvas_Unique_SMILES_Stereo>
CN1C(=O)C[C@H]([C@@H]12)[N@@H+](C)CC2

$$$$
Schrodinger_fragment_244
                    3D
 Structure written by MMmdl.
 26 27  0  0  1  0            999 V2000
    2.2347   -0.9688    0.2215 C   0  0  1  0  0  0
    2.2337   -2.3749   -0.3058 C   0  0  1  0  0  0
    3.5885   -2.7942   -0.0146 N   0  0  0  0  0  0
    4.3877   -1.7159   -0.1635 C   0  0  0  0  0  0
    3.5490   -0.4348   -0.3399 C   0  0  0  0  0  0
    0.0282   -1.6838    0.1077 C   0  0  0  0  0  0
    0.9729   -2.9022    0.3571 C   0  0  0  0  0  0
    5.6215   -1.7201   -0.1446 O   0  0  0  0  0  0
    3.9868   -4.1879    0.1298 C   0  0  0  0  0  0
    0.4687    0.7475    0.5262 C   0  0  0  0  0  0
    2.3012   -0.9672    1.3150 H   0  0  0  0  0  0
    2.1036   -2.3970   -1.3926 H   0  0  0  0  0  0
    3.4845   -0.1695   -1.3951 H   0  0  0  0  0  0
    3.9434    0.4051    0.2315 H   0  0  0  0  0  0
   -0.6099   -1.8535   -0.7604 H   0  0  0  0  0  0
   -0.6283   -1.5318    0.9658 H   0  0  0  0  0  0
    0.6044   -3.8246   -0.0925 H   0  0  0  0  0  0
    1.1243   -3.0722    1.4243 H   0  0  0  0  0  0
    4.7546   -4.2911    0.8976 H   0  0  0  0  0  0
    4.3902   -4.5667   -0.8097 H   0  0  0  0  0  0
    3.1396   -4.8122    0.4142 H   0  0  0  0  0  0
   -0.5314    1.0365    0.2028 H   0  0  0  0  0  0
    1.1460    1.5687    0.2907 H   0  0  0  0  0  0
    0.4518    0.6222    1.6093 H   0  0  0  0  0  0
    0.8973   -0.4915   -0.1571 N   0  3  1  0  0  0
    0.8832   -0.3226   -1.1523 H   0  0  0  0  0  0
  1  2  1  0  0  0
  1  5  1  0  0  0
  1 11  1  0  0  0
  1 25  1  0  0  0
  2  3  1  0  0  0
  2  7  1  0  0  0
  2 12  1  0  0  0
  3  4  1  0  0  0
  3  9  1  0  0  0
  4  5  1  0  0  0
  4  8  2  0  0  0
  5 13  1  0  0  0
  5 14  1  0  0  0
  6  7  1  0  0  0
  6 15  1  0  0  0
  6 16  1  0  0  0
  6 25  1  0  0  0
  7 17  1  0  0  0
  7 18  1  0  0  0
  9 19  1  0  0  0
  9 20  1  0  0  0
  9 21  1  0  0  0
 10 22  1  0  0  0
 10 23  1  0  0  0
 10 24  1  0  0  0
 10 25  1  0  0  0
 25 26  1  0  0  0
M  CHG  1  25   1
M  END
> <s_m_entry_name>
Schrodinger_fragment_305

> <i_m_number_of_atoms>
26

> <r_m_molecular_weight>
155.22155

> <s_m_molecular_formula>
C8H15N2O1

> <r_epik_Ionization_Penalty>
  0.0024

> <r_epik_Ionization_Penalty_Charging>
  0.0024

> <r_epik_Ionization_Penalty_Neutral>
  0.0000

> <r_epik_State_Penalty>
  0.0000

> <i_epik_Tot_Q>
1

> <r_epik_Metal_State_Penalty>
  0.0000

> <b_epik_Metal_Only>
0

> <s_m_entry_id>
4689

> <s_canvas_Unique_SMILES_Stereo>
CN1C(=O)C[C@H]([C@@H]12)[N@H+](C)CC2

$$$$
Schrodinger_fragment_245
                    3D
 Structure written by MMmdl.
 23 24  0  0  1  0            999 V2000
    2.2334   -1.9007    0.6087 C   0  0  1  0  0  0
    2.1458   -3.1154   -0.2705 C   0  0  1  0  0  0
    3.5093   -3.5974   -0.2259 N   0  0  0  0  0  0
    4.3204   -2.5296   -0.1451 C   0  0  0  0  0  0
    3.5169   -1.2386    0.1091 C   0  0  0  0  0  0
    0.0019   -2.5499    0.4820 C   0  0  0  0  0  0
    0.9378   -3.7937    0.3481 C   0  0  0  0  0  0
    5.5474   -2.5624   -0.2366 O   0  0  0  0  0  0
    0.6286   -0.3230   -0.4919 C   0  0  0  0  0  0
    2.3994   -2.1961    1.6500 H   0  0  0  0  0  0
    1.9178   -2.8501   -1.3072 H   0  0  0  0  0  0
    3.7952   -4.5467   -0.4281 H   0  0  0  0  0  0
    3.3913   -0.6933   -0.8262 H   0  0  0  0  0  0
    3.9815   -0.5948    0.8557 H   0  0  0  0  0  0
   -0.6627   -2.4858   -0.3812 H   0  0  0  0  0  0
   -0.6319   -2.6292    1.3658 H   0  0  0  0  0  0
    0.5138   -4.5762   -0.2815 H   0  0  0  0  0  0
    1.1717   -4.2210    1.3245 H   0  0  0  0  0  0
   -0.4034    0.0261   -0.4505 H   0  0  0  0  0  0
    0.8078   -0.7241   -1.4897 H   0  0  0  0  0  0
    1.2725    0.5457   -0.3531 H   0  0  0  0  0  0
    0.8752   -1.3329    0.5631 N   0  3  2  0  0  0
    0.7015   -0.8789    1.4482 H   0  0  0  0  0  0
  1  2  1  0  0  0
  1  5  1  0  0  0
  1 10  1  0  0  0
  1 22  1  0  0  0
  2  3  1  0  0  0
  2  7  1  0  0  0
  2 11  1  0  0  0
  3  4  1  0  0  0
  3 12  1  0  0  0
  4  5  1  0  0  0
  4  8  2  0  0  0
  5 13  1  0  0  0
  5 14  1  0  0  0
  6  7  1  0  0  0
  6 15  1  0  0  0
  6 16  1  0  0  0
  6 22  1  0  0  0
  7 17  1  0  0  0
  7 18  1  0  0  0
  9 19  1  0  0  0
  9 20  1  0  0  0
  9 21  1  0  0  0
  9 22  1  0  0  0
 22 23  1  0  0  0
M  CHG  1  22   1
M  END
> <s_m_entry_name>
Schrodinger_fragment_306

> <i_m_number_of_atoms>
23

> <r_m_molecular_weight>
141.19446

> <s_m_molecular_formula>
C7H13N2O1

> <r_epik_Ionization_Penalty>
  0.0038

> <r_epik_Ionization_Penalty_Charging>
  0.0038

> <r_epik_Ionization_Penalty_Neutral>
  0.0000

> <r_epik_State_Penalty>
  0.0000

> <i_epik_Tot_Q>
1

> <r_epik_Metal_State_Penalty>
  0.0000

> <b_epik_Metal_Only>
0

> <s_m_entry_id>
4690

> <s_canvas_Unique_SMILES_Stereo>
C1C[N@H+](C)[C@@H]([C@H]12)CC(=O)N2

$$$$
Schrodinger_fragment_246
                    3D
 Structure written by MMmdl.
 23 24  0  0  1  0            999 V2000
    2.2167   -1.8393    0.2582 C   0  0  1  0  0  0
    2.2412   -3.2524   -0.2508 C   0  0  1  0  0  0
    3.5769   -3.6700    0.1136 N   0  0  0  0  0  0
    4.3812   -2.6017   -0.0063 C   0  0  0  0  0  0
    3.5620   -1.3164   -0.2380 C   0  0  0  0  0  0
    0.0201   -2.5555    0.0378 C   0  0  0  0  0  0
    0.9493   -3.7714    0.3528 C   0  0  0  0  0  0
    5.6089   -2.6235    0.0778 O   0  0  0  0  0  0
    0.4401   -0.1168    0.4392 C   0  0  0  0  0  0
    2.2235   -1.8234    1.3534 H   0  0  0  0  0  0
    2.1650   -3.2887   -1.3425 H   0  0  0  0  0  0
    3.8750   -4.6303    0.2267 H   0  0  0  0  0  0
    3.5545   -1.0589   -1.2973 H   0  0  0  0  0  0
    3.9302   -0.4734    0.3464 H   0  0  0  0  0  0
   -0.5737   -2.7373   -0.8588 H   0  0  0  0  0  0
   -0.6784   -2.3906    0.8595 H   0  0  0  0  0  0
    0.6031   -4.6991   -0.1035 H   0  0  0  0  0  0
    1.0440   -3.9266    1.4287 H   0  0  0  0  0  0
   -0.5404    0.1679    0.0570 H   0  0  0  0  0  0
    1.1308    0.6998    0.2278 H   0  0  0  0  0  0
    0.3638   -0.2243    1.5217 H   0  0  0  0  0  0
    0.9031   -1.3672   -0.1993 N   0  3  1  0  0  0
    0.9456   -1.2162   -1.1964 H   0  0  0  0  0  0
  1  2  1  0  0  0
  1  5  1  0  0  0
  1 10  1  0  0  0
  1 22  1  0  0  0
  2  3  1  0  0  0
  2  7  1  0  0  0
  2 11  1  0  0  0
  3  4  1  0  0  0
  3 12  1  0  0  0
  4  5  1  0  0  0
  4  8  2  0  0  0
  5 13  1  0  0  0
  5 14  1  0  0  0
  6  7  1  0  0  0
  6 15  1  0  0  0
  6 16  1  0  0  0
  6 22  1  0  0  0
  7 17  1  0  0  0
  7 18  1  0  0  0
  9 19  1  0  0  0
  9 20  1  0  0  0
  9 21  1  0  0  0
  9 22  1  0  0  0
 22 23  1  0  0  0
M  CHG  1  22   1
M  END
> <s_m_entry_name>
Schrodinger_fragment_307

> <i_m_number_of_atoms>
23

> <r_m_molecular_weight>
141.19446

> <s_m_molecular_formula>
C7H13N2O1

> <r_epik_Ionization_Penalty>
  0.0038

> <r_epik_Ionization_Penalty_Charging>
  0.0038

> <r_epik_Ionization_Penalty_Neutral>
  0.0000

> <r_epik_State_Penalty>
  0.0000

> <i_epik_Tot_Q>
1

> <r_epik_Metal_State_Penalty>
  0.0000

> <b_epik_Metal_Only>
0

> <s_m_entry_id>
4691

> <s_canvas_Unique_SMILES_Stereo>
C1C[N@@H+](C)[C@@H]([C@H]12)CC(=O)N2

$$$$
Schrodinger_fragment_247
                    3D
 Structure written by MMmdl.
 23 24  0  0  1  0            999 V2000
    0.0113   -0.5339   -0.4597 C   0  0  0  0  0  0
   -0.1232   -1.4964    0.7244 C   0  0  0  0  0  0
    2.2066   -1.3056    0.1584 C   0  0  1  0  0  0
    1.3575   -0.9187   -1.0697 C   0  0  0  0  0  0
    3.2376   -2.3888   -0.1441 C   0  0  0  0  0  0
    4.4724   -1.9049   -0.0680 N   0  0  0  0  0  0
    4.5154   -0.4894    0.2544 C   0  0  0  0  0  0
    3.0809   -0.1517    0.6952 C   0  0  0  0  0  0
    2.9480   -3.5625   -0.3814 O   0  0  0  0  0  0
   -0.8166   -0.6108   -1.1657 H   0  0  0  0  0  0
    0.0483    0.4961   -0.1006 H   0  0  0  0  0  0
   -0.7119   -1.0719    1.5386 H   0  0  0  0  0  0
   -0.6130   -2.4182    0.4071 H   0  0  0  0  0  0
    1.2276   -1.7710   -1.7394 H   0  0  0  0  0  0
    1.7962   -0.1103   -1.6556 H   0  0  0  0  0  0
    5.3061   -2.4570   -0.2232 H   0  0  0  0  0  0
    5.2460   -0.2771    1.0365 H   0  0  0  0  0  0
    4.7969    0.0763   -0.6356 H   0  0  0  0  0  0
    2.7681    0.8251    0.3248 H   0  0  0  0  0  0
    3.0399   -0.1039    1.7842 H   0  0  0  0  0  0
    1.2532   -1.8222    1.1574 N   0  3  0  0  0  0
    1.4658   -1.4567    2.0703 H   0  0  0  0  0  0
    1.3791   -2.8236    1.1774 H   0  0  0  0  0  0
  1  2  1  0  0  0
  1  4  1  0  0  0
  1 10  1  0  0  0
  1 11  1  0  0  0
  2 12  1  0  0  0
  2 13  1  0  0  0
  2 21  1  0  0  0
  3  4  1  0  0  0
  3  5  1  0  0  0
  3  8  1  0  0  0
  3 21  1  0  0  0
  4 14  1  0  0  0
  4 15  1  0  0  0
  5  6  1  0  0  0
  5  9  2  0  0  0
  6  7  1  0  0  0
  6 16  1  0  0  0
  7  8  1  0  0  0
  7 17  1  0  0  0
  7 18  1  0  0  0
  8 19  1  0  0  0
  8 20  1  0  0  0
 21 22  1  0  0  0
 21 23  1  0  0  0
M  CHG  1  21   1
M  END
> <s_m_entry_name>
Schrodinger_fragment_308

> <i_m_number_of_atoms>
23

> <r_m_molecular_weight>
141.19446

> <s_m_molecular_formula>
C7H13N2O1

> <r_epik_Ionization_Penalty>
  0.0028

> <r_epik_Ionization_Penalty_Charging>
  0.0019

> <r_epik_Ionization_Penalty_Neutral>
  0.0009

> <r_epik_State_Penalty>
  0.0000

> <i_epik_Tot_Q>
1

> <r_epik_Metal_State_Penalty>
  0.5395

> <b_epik_Metal_Only>
0

> <s_m_entry_id>
4692

> <s_canvas_Unique_SMILES_Stereo>
C1CNC(=O)[C@]12CCC[NH2+]2

$$$$
Schrodinger_fragment_247_a
                    3D
 Structure written by MMmdl.
 22 23  0  0  1  0            999 V2000
    0.0527   -0.5225   -0.4766 C   0  0  0  0  0  0
   -0.1091   -1.4664    0.7220 C   0  0  0  0  0  0
    2.2254   -1.3078    0.1824 C   0  0  1  0  0  0
    1.4056   -0.9202   -1.0646 C   0  0  0  0  0  0
    3.3038   -2.3496   -0.0792 C   0  0  0  0  0  0
    4.4727   -1.8725   -0.0643 N   0  0  0  0  0  0
    4.4350   -0.4397    0.1928 C   0  0  0  0  0  0
    3.0407   -0.1491    0.7513 C   0  0  0  0  0  0
    2.9871   -3.5332   -0.2364 O   0  5  0  0  0  0
   -0.7653   -0.6060   -1.1928 H   0  0  0  0  0  0
    0.0888    0.5114   -0.1304 H   0  0  0  0  0  0
   -0.6585   -0.9981    1.5392 H   0  0  0  0  0  0
   -0.6518   -2.3661    0.4301 H   0  0  0  0  0  0
    1.2734   -1.7825   -1.7204 H   0  0  0  0  0  0
    1.8675   -0.1289   -1.6556 H   0  0  0  0  0  0
    5.2111   -0.1357    0.8981 H   0  0  0  0  0  0
    4.6015    0.1146   -0.7339 H   0  0  0  0  0  0
    2.6655    0.8347    0.4658 H   0  0  0  0  0  0
    3.0718   -0.1847    1.8418 H   0  0  0  0  0  0
    1.2525   -1.8534    1.1379 N   0  3  0  0  0  0
    1.4773   -1.5941    2.0823 H   0  0  0  0  0  0
    1.3790   -2.8520    1.0360 H   0  0  0  0  0  0
  1  2  1  0  0  0
  1  4  1  0  0  0
  1 10  1  0  0  0
  1 11  1  0  0  0
  2 12  1  0  0  0
  2 13  1  0  0  0
  2 20  1  0  0  0
  3  4  1  0  0  0
  3  5  1  0  0  0
  3  8  1  0  0  0
  3 20  1  0  0  0
  4 14  1  0  0  0
  4 15  1  0  0  0
  5  6  2  0  0  0
  5  9  1  0  0  0
  6  7  1  0  0  0
  7  8  1  0  0  0
  7 16  1  0  0  0
  7 17  1  0  0  0
  8 18  1  0  0  0
  8 19  1  0  0  0
 20 21  1  0  0  0
 20 22  1  0  0  0
M  CHG  2   9  -1  20   1
M  END
> <s_m_entry_name>
Schrodinger_fragment_308

> <i_m_number_of_atoms>
23

> <r_m_molecular_weight>
141.19446

> <s_m_molecular_formula>
C7H13N2O1

> <r_epik_Ionization_Penalty>
  3.8597

> <r_epik_Ionization_Penalty_Charging>
  3.8597

> <r_epik_Ionization_Penalty_Neutral>
  0.0000

> <r_epik_State_Penalty>
  3.8582

> <i_epik_Tot_Q>
0

> <r_epik_Metal_State_Penalty>
  0.3049

> <b_epik_Metal_Only>
1

> <s_m_entry_id>
4693

> <s_canvas_Unique_SMILES_Stereo>
C1CN=C([O-])[C@]12CCC[NH2+]2

$$$$
Schrodinger_fragment_248
                    3D
 Structure written by MMmdl.
 26 27  0  0  1  0            999 V2000
   -0.0680   -0.2489   -0.4819 C   0  0  0  0  0  0
   -0.3321   -1.5258    0.3228 C   0  0  0  0  0  0
    2.0355   -1.3587   -0.1223 C   0  0  1  0  0  0
    1.2737   -0.5099   -1.1592 C   0  0  0  0  0  0
    3.0556   -2.3092   -0.7504 C   0  0  0  0  0  0
    4.2409   -2.1966   -0.1616 N   0  0  0  0  0  0
    4.2679   -1.2271    0.9192 C   0  0  0  0  0  0
    2.9121   -0.5061    0.8327 C   0  0  0  0  0  0
    2.7872   -3.1064   -1.6499 O   0  0  0  0  0  0
    1.2097   -2.6734    1.9105 C   0  0  0  0  0  0
   -0.8664   -0.0239   -1.1899 H   0  0  0  0  0  0
    0.0223    0.6003    0.1971 H   0  0  0  0  0  0
   -0.8372   -1.2951    1.2620 H   0  0  0  0  0  0
   -0.9775   -2.2063   -0.2337 H   0  0  0  0  0  0
    1.1109   -1.0710   -2.0812 H   0  0  0  0  0  0
    1.7873    0.4115   -1.4344 H   0  0  0  0  0  0
    5.0494   -2.7488   -0.4176 H   0  0  0  0  0  0
    4.3798   -1.7459    1.8727 H   0  0  0  0  0  0
    5.1051   -0.5357    0.8113 H   0  0  0  0  0  0
    3.0811    0.4821    0.4039 H   0  0  0  0  0  0
    2.4752   -0.3228    1.8126 H   0  0  0  0  0  0
    2.1841   -3.1522    2.0079 H   0  0  0  0  0  0
    0.4566   -3.4175    2.1707 H   0  0  0  0  0  0
    1.1407   -1.8742    2.6479 H   0  0  0  0  0  0
    0.9797   -2.1837    0.5287 N   0  3  1  0  0  0
    0.9593   -3.0114   -0.0520 H   0  0  0  0  0  0
  1  2  1  0  0  0
  1  4  1  0  0  0
  1 11  1  0  0  0
  1 12  1  0  0  0
  2 13  1  0  0  0
  2 14  1  0  0  0
  2 25  1  0  0  0
  3  4  1  0  0  0
  3  5  1  0  0  0
  3  8  1  0  0  0
  3 25  1  0  0  0
  4 15  1  0  0  0
  4 16  1  0  0  0
  5  6  1  0  0  0
  5  9  2  0  0  0
  6  7  1  0  0  0
  6 17  1  0  0  0
  7  8  1  0  0  0
  7 18  1  0  0  0
  7 19  1  0  0  0
  8 20  1  0  0  0
  8 21  1  0  0  0
 10 22  1  0  0  0
 10 23  1  0  0  0
 10 24  1  0  0  0
 10 25  1  0  0  0
 25 26  1  0  0  0
M  CHG  1  25   1
M  END
> <s_m_entry_name>
Schrodinger_fragment_309

> <i_m_number_of_atoms>
26

> <r_m_molecular_weight>
155.22155

> <s_m_molecular_formula>
C8H15N2O1

> <r_epik_Ionization_Penalty>
  0.0019

> <r_epik_Ionization_Penalty_Charging>
  0.0005

> <r_epik_Ionization_Penalty_Neutral>
  0.0014

> <r_epik_State_Penalty>
  0.0000

> <i_epik_Tot_Q>
1

> <r_epik_Metal_State_Penalty>
  0.7308

> <b_epik_Metal_Only>
0

> <s_m_entry_id>
4694

> <s_canvas_Unique_SMILES_Stereo>
C[N@H+]1CCC[C@]12C(=O)NCC2

$$$$
Schrodinger_fragment_248_a
                    3D
 Structure written by MMmdl.
 25 26  0  0  1  0            999 V2000
   -0.0500   -0.2299   -0.4689 C   0  0  0  0  0  0
   -0.3265   -1.5052    0.3363 C   0  0  0  0  0  0
    2.0386   -1.3685   -0.1209 C   0  0  1  0  0  0
    1.2767   -0.5210   -1.1637 C   0  0  0  0  0  0
    3.0803   -2.3151   -0.7141 C   0  0  0  0  0  0
    4.2233   -2.2071   -0.1889 N   0  0  0  0  0  0
    4.2246   -1.2280    0.8873 C   0  0  0  0  0  0
    2.8822   -0.4974    0.8226 C   0  0  0  0  0  0
    2.7574   -3.1183   -1.5948 O   0  5  0  0  0  0
    1.2129   -2.7026    1.8970 C   0  0  0  0  0  0
   -0.8529    0.0110   -1.1662 H   0  0  0  0  0  0
    0.0675    0.6163    0.2096 H   0  0  0  0  0  0
   -0.8167   -1.2683    1.2817 H   0  0  0  0  0  0
   -0.9866   -2.1762   -0.2142 H   0  0  0  0  0  0
    1.0792   -1.0989   -2.0678 H   0  0  0  0  0  0
    1.8060    0.3800   -1.4739 H   0  0  0  0  0  0
    4.3425   -1.7273    1.8515 H   0  0  0  0  0  0
    5.0555   -0.5268    0.7854 H   0  0  0  0  0  0
    3.0501    0.4889    0.3881 H   0  0  0  0  0  0
    2.4428   -0.3164    1.8026 H   0  0  0  0  0  0
    2.1829   -3.1935    1.9730 H   0  0  0  0  0  0
    0.4533   -3.4432    2.1471 H   0  0  0  0  0  0
    1.1615   -1.9174    2.6505 H   0  0  0  0  0  0
    0.9775   -2.1813    0.5289 N   0  3  1  0  0  0
    0.9748   -2.9914   -0.0779 H   0  0  0  0  0  0
  1  2  1  0  0  0
  1  4  1  0  0  0
  1 11  1  0  0  0
  1 12  1  0  0  0
  2 13  1  0  0  0
  2 14  1  0  0  0
  2 24  1  0  0  0
  3  4  1  0  0  0
  3  5  1  0  0  0
  3  8  1  0  0  0
  3 24  1  0  0  0
  4 15  1  0  0  0
  4 16  1  0  0  0
  5  6  2  0  0  0
  5  9  1  0  0  0
  6  7  1  0  0  0
  7  8  1  0  0  0
  7 17  1  0  0  0
  7 18  1  0  0  0
  8 19  1  0  0  0
  8 20  1  0  0  0
 10 21  1  0  0  0
 10 22  1  0  0  0
 10 23  1  0  0  0
 10 24  1  0  0  0
 24 25  1  0  0  0
M  CHG  2   9  -1  24   1
M  END
> <s_m_entry_name>
Schrodinger_fragment_309

> <i_m_number_of_atoms>
26

> <r_m_molecular_weight>
155.22155

> <s_m_molecular_formula>
C8H15N2O1

> <r_epik_Ionization_Penalty>
  3.5675

> <r_epik_Ionization_Penalty_Charging>
  3.5675

> <r_epik_Ionization_Penalty_Neutral>
  0.0000

> <r_epik_State_Penalty>
  3.5659

> <i_epik_Tot_Q>
0

> <r_epik_Metal_State_Penalty>
  0.2040

> <b_epik_Metal_Only>
1

> <s_m_entry_id>
4695

> <s_canvas_Unique_SMILES_Stereo>
C[N@H+]1CCC[C@]12C([O-])=NCC2

$$$$
Schrodinger_fragment_249
                    3D
 Structure written by MMmdl.
 26 27  0  0  1  0            999 V2000
   -0.1333   -0.7308   -0.9408 C   0  0  0  0  0  0
   -0.3264   -1.6027    0.3095 C   0  0  0  0  0  0
    2.0249   -1.1084    0.1213 C   0  0  1  0  0  0
    1.2700   -0.1339   -0.8014 C   0  0  0  0  0  0
    2.7239   -2.2305   -0.6694 C   0  0  0  0  0  0
    4.0022   -2.3344   -0.3256 N   0  0  0  0  0  0
    4.4163   -1.3812    0.6857 C   0  0  0  0  0  0
    3.2041   -0.4539    0.8770 C   0  0  0  0  0  0
    2.1643   -2.9492   -1.4988 O   0  0  0  0  0  0
    1.2279   -2.8674    1.7963 C   0  0  0  0  0  0
   -0.1898   -1.3534   -1.8351 H   0  0  0  0  0  0
   -0.9003    0.0391   -1.0315 H   0  0  0  0  0  0
   -1.1096   -1.2083    0.9580 H   0  0  0  0  0  0
   -0.6244   -2.6104    0.0154 H   0  0  0  0  0  0
    1.7563    0.0045   -1.7684 H   0  0  0  0  0  0
    1.2015    0.8486   -0.3327 H   0  0  0  0  0  0
    4.6374   -3.0123   -0.7268 H   0  0  0  0  0  0
    4.6600   -1.9096    1.6088 H   0  0  0  0  0  0
    5.3030   -0.8306    0.3677 H   0  0  0  0  0  0
    3.4336    0.5239    0.4513 H   0  0  0  0  0  0
    2.9959   -0.2912    1.9349 H   0  0  0  0  0  0
    2.1730   -2.8081    2.3365 H   0  0  0  0  0  0
    1.2556   -3.7460    1.1510 H   0  0  0  0  0  0
    0.4412   -3.0299    2.5333 H   0  0  0  0  0  0
    0.9646   -1.6186    1.0370 N   0  3  2  0  0  0
    0.8668   -0.8970    1.7343 H   0  0  0  0  0  0
  1  2  1  0  0  0
  1  4  1  0  0  0
  1 11  1  0  0  0
  1 12  1  0  0  0
  2 13  1  0  0  0
  2 14  1  0  0  0
  2 25  1  0  0  0
  3  4  1  0  0  0
  3  5  1  0  0  0
  3  8  1  0  0  0
  3 25  1  0  0  0
  4 15  1  0  0  0
  4 16  1  0  0  0
  5  6  1  0  0  0
  5  9  2  0  0  0
  6  7  1  0  0  0
  6 17  1  0  0  0
  7  8  1  0  0  0
  7 18  1  0  0  0
  7 19  1  0  0  0
  8 20  1  0  0  0
  8 21  1  0  0  0
 10 22  1  0  0  0
 10 23  1  0  0  0
 10 24  1  0  0  0
 10 25  1  0  0  0
 25 26  1  0  0  0
M  CHG  1  25   1
M  END
> <s_m_entry_name>
Schrodinger_fragment_310

> <i_m_number_of_atoms>
26

> <r_m_molecular_weight>
155.22155

> <s_m_molecular_formula>
C8H15N2O1

> <r_epik_Ionization_Penalty>
  0.0019

> <r_epik_Ionization_Penalty_Charging>
  0.0005

> <r_epik_Ionization_Penalty_Neutral>
  0.0014

> <r_epik_State_Penalty>
  0.0000

> <i_epik_Tot_Q>
1

> <r_epik_Metal_State_Penalty>
  0.7308

> <b_epik_Metal_Only>
0

> <s_m_entry_id>
4696

> <s_canvas_Unique_SMILES_Stereo>
C[N@@H+]1CCC[C@]12C(=O)NCC2

$$$$
Schrodinger_fragment_249_a
                    3D
 Structure written by MMmdl.
 25 26  0  0  1  0            999 V2000
   -0.1699   -0.6715   -0.8865 C   0  0  0  0  0  0
   -0.3003   -1.6531    0.2873 C   0  0  0  0  0  0
    2.0330   -1.1207    0.0972 C   0  0  1  0  0  0
    1.2693   -0.1463   -0.8268 C   0  0  0  0  0  0
    2.7755   -2.2367   -0.6703 C   0  0  0  0  0  0
    3.9867   -2.3608   -0.3311 N   0  0  0  0  0  0
    4.3441   -1.4245    0.7201 C   0  0  0  0  0  0
    3.1852   -0.4344    0.8364 C   0  0  0  0  0  0
    2.2012   -2.9198   -1.5248 O   0  5  0  0  0  0
    1.2571   -2.8427    1.8190 C   0  0  0  0  0  0
   -0.3507   -1.1911   -1.8283 H   0  0  0  0  0  0
   -0.8937    0.1415   -0.8181 H   0  0  0  0  0  0
   -1.1327   -1.3985    0.9442 H   0  0  0  0  0  0
   -0.4843   -2.6574   -0.0978 H   0  0  0  0  0  0
    1.7231   -0.0486   -1.8140 H   0  0  0  0  0  0
    1.2549    0.8508   -0.3849 H   0  0  0  0  0  0
    4.4938   -1.9549    1.6630 H   0  0  0  0  0  0
    5.2778   -0.9065    0.4913 H   0  0  0  0  0  0
    3.4643    0.4943    0.3355 H   0  0  0  0  0  0
    2.9568   -0.1803    1.8725 H   0  0  0  0  0  0
    2.1886   -2.7466    2.3763 H   0  0  0  0  0  0
    1.3239   -3.7308    1.1903 H   0  0  0  0  0  0
    0.4594   -3.0117    2.5424 H   0  0  0  0  0  0
    0.9795   -1.6176    1.0284 N   0  3  2  0  0  0
    0.8697   -0.8762    1.7012 H   0  0  0  0  0  0
  1  2  1  0  0  0
  1  4  1  0  0  0
  1 11  1  0  0  0
  1 12  1  0  0  0
  2 13  1  0  0  0
  2 14  1  0  0  0
  2 24  1  0  0  0
  3  4  1  0  0  0
  3  5  1  0  0  0
  3  8  1  0  0  0
  3 24  1  0  0  0
  4 15  1  0  0  0
  4 16  1  0  0  0
  5  6  2  0  0  0
  5  9  1  0  0  0
  6  7  1  0  0  0
  7  8  1  0  0  0
  7 17  1  0  0  0
  7 18  1  0  0  0
  8 19  1  0  0  0
  8 20  1  0  0  0
 10 21  1  0  0  0
 10 22  1  0  0  0
 10 23  1  0  0  0
 10 24  1  0  0  0
 24 25  1  0  0  0
M  CHG  2   9  -1  24   1
M  END
> <s_m_entry_name>
Schrodinger_fragment_310

> <i_m_number_of_atoms>
26

> <r_m_molecular_weight>
155.22155

> <s_m_molecular_formula>
C8H15N2O1

> <r_epik_Ionization_Penalty>
  3.5675

> <r_epik_Ionization_Penalty_Charging>
  3.5675

> <r_epik_Ionization_Penalty_Neutral>
  0.0000

> <r_epik_State_Penalty>
  3.5659

> <i_epik_Tot_Q>
0

> <r_epik_Metal_State_Penalty>
  0.2040

> <b_epik_Metal_Only>
1

> <s_m_entry_id>
4697

> <s_canvas_Unique_SMILES_Stereo>
C[N@@H+]1CCC[C@]12C([O-])=NCC2

$$$$
Schrodinger_fragment_250
                    3D
 Structure written by MMmdl.
 29 30  0  0  1  0            999 V2000
   -0.0302   -0.2449   -0.5504 C   0  0  0  0  0  0
   -0.3342   -1.4943    0.2834 C   0  0  0  0  0  0
    2.0484   -1.3639   -0.0873 C   0  0  1  0  0  0
    1.3320   -0.5362   -1.1727 C   0  0  0  0  0  0
    3.0937   -2.3272   -0.6522 C   0  0  0  0  0  0
    4.2611   -2.1998   -0.0115 N   0  0  0  0  0  0
    4.2253   -1.2137    1.0571 C   0  0  0  0  0  0
    2.8805   -0.4896    0.8855 C   0  0  0  0  0  0
    2.8499   -3.1392   -1.5497 O   0  0  0  0  0  0
    1.1399   -2.6455    1.9319 C   0  0  0  0  0  0
    5.4632   -2.9835   -0.2703 C   0  0  0  0  0  0
   -0.8015   -0.0356   -1.2924 H   0  0  0  0  0  0
    0.0434    0.6242    0.1051 H   0  0  0  0  0  0
   -0.8542   -1.2271    1.2047 H   0  0  0  0  0  0
   -0.9807   -2.1792   -0.2666 H   0  0  0  0  0  0
    1.1957   -1.1201   -2.0848 H   0  0  0  0  0  0
    1.8638    0.3731   -1.4539 H   0  0  0  0  0  0
    4.2787   -1.7206    2.0219 H   0  0  0  0  0  0
    5.0667   -0.5222    0.9913 H   0  0  0  0  0  0
    3.0757    0.4854    0.4379 H   0  0  0  0  0  0
    2.3959   -0.2777    1.8369 H   0  0  0  0  0  0
    2.1018   -3.1404    2.0658 H   0  0  0  0  0  0
    0.3656   -3.3726    2.1778 H   0  0  0  0  0  0
    1.0631   -1.8366    2.6579 H   0  0  0  0  0  0
    6.2745   -2.6981    0.4002 H   0  0  0  0  0  0
    5.8044   -2.8342   -1.2956 H   0  0  0  0  0  0
    5.2667   -4.0470   -0.1282 H   0  0  0  0  0  0
    0.9609   -2.1688    0.5377 N   0  3  1  0  0  0
    0.9423   -3.0030   -0.0340 H   0  0  0  0  0  0
  1  2  1  0  0  0
  1  4  1  0  0  0
  1 12  1  0  0  0
  1 13  1  0  0  0
  2 14  1  0  0  0
  2 15  1  0  0  0
  2 28  1  0  0  0
  3  4  1  0  0  0
  3  5  1  0  0  0
  3  8  1  0  0  0
  3 28  1  0  0  0
  4 16  1  0  0  0
  4 17  1  0  0  0
  5  6  1  0  0  0
  5  9  2  0  0  0
  6  7  1  0  0  0
  6 11  1  0  0  0
  7  8  1  0  0  0
  7 18  1  0  0  0
  7 19  1  0  0  0
  8 20  1  0  0  0
  8 21  1  0  0  0
 10 22  1  0  0  0
 10 23  1  0  0  0
 10 24  1  0  0  0
 10 28  1  0  0  0
 11 25  1  0  0  0
 11 26  1  0  0  0
 11 27  1  0  0  0
 28 29  1  0  0  0
M  CHG  1  28   1
M  END
> <s_m_entry_name>
Schrodinger_fragment_311

> <i_m_number_of_atoms>
29

> <r_m_molecular_weight>
169.24864

> <s_m_molecular_formula>
C9H17N2O1

> <r_epik_Ionization_Penalty>
  0.0004

> <r_epik_Ionization_Penalty_Charging>
  0.0004

> <r_epik_Ionization_Penalty_Neutral>
  0.0000

> <r_epik_State_Penalty>
  0.0000

> <i_epik_Tot_Q>
1

> <r_epik_Metal_State_Penalty>
  0.0000

> <b_epik_Metal_Only>
0

> <s_m_entry_id>
4698

> <s_canvas_Unique_SMILES_Stereo>
C1CN(C)C(=O)[C@]12CCC[N@@H+]2C

$$$$
Schrodinger_fragment_251
                    3D
 Structure written by MMmdl.
 29 30  0  0  1  0            999 V2000
   -0.0122   -0.8112   -1.0592 C   0  0  0  0  0  0
   -0.2718   -1.6537    0.1991 C   0  0  0  0  0  0
    2.0665   -1.0668    0.1846 C   0  0  1  0  0  0
    1.3512   -0.1533   -0.8283 C   0  0  0  0  0  0
    2.8718   -2.1828   -0.5078 C   0  0  0  0  0  0
    4.1261   -2.2276   -0.0469 N   0  0  0  0  0  0
    4.3984   -1.2331    0.9763 C   0  0  0  0  0  0
    3.1492   -0.3384    1.0107 C   0  0  0  0  0  0
    2.3990   -2.9409   -1.3605 O   0  0  0  0  0  0
    1.2027   -2.8034    1.8517 C   0  0  0  0  0  0
    5.1543   -3.1721   -0.4679 C   0  0  0  0  0  0
    0.0270   -1.4609   -1.9349 H   0  0  0  0  0  0
   -0.7985   -0.0762   -1.2348 H   0  0  0  0  0  0
   -1.1216   -1.2754    0.7686 H   0  0  0  0  0  0
   -0.5027   -2.6817   -0.0852 H   0  0  0  0  0  0
    1.9082   -0.0239   -1.7577 H   0  0  0  0  0  0
    1.2069    0.8395   -0.4000 H   0  0  0  0  0  0
    4.5525   -1.7303    1.9354 H   0  0  0  0  0  0
    5.2973   -0.6599    0.7437 H   0  0  0  0  0  0
    3.3890    0.6238    0.5558 H   0  0  0  0  0  0
    2.8388   -0.1300    2.0351 H   0  0  0  0  0  0
    2.0949   -2.6862    2.4672 H   0  0  0  0  0  0
    1.3198   -3.7007    1.2433 H   0  0  0  0  0  0
    0.3634   -2.9754    2.5259 H   0  0  0  0  0  0
    6.0885   -3.0075    0.0700 H   0  0  0  0  0  0
    5.3562   -3.0681   -1.5348 H   0  0  0  0  0  0
    4.8334   -4.1977   -0.2804 H   0  0  0  0  0  0
    0.9548   -1.5920    1.0288 N   0  3  2  0  0  0
    0.7708   -0.8531    1.6900 H   0  0  0  0  0  0
  1  2  1  0  0  0
  1  4  1  0  0  0
  1 12  1  0  0  0
  1 13  1  0  0  0
  2 14  1  0  0  0
  2 15  1  0  0  0
  2 28  1  0  0  0
  3  4  1  0  0  0
  3  5  1  0  0  0
  3  8  1  0  0  0
  3 28  1  0  0  0
  4 16  1  0  0  0
  4 17  1  0  0  0
  5  6  1  0  0  0
  5  9  2  0  0  0
  6  7  1  0  0  0
  6 11  1  0  0  0
  7  8  1  0  0  0
  7 18  1  0  0  0
  7 19  1  0  0  0
  8 20  1  0  0  0
  8 21  1  0  0  0
 10 22  1  0  0  0
 10 23  1  0  0  0
 10 24  1  0  0  0
 10 28  1  0  0  0
 11 25  1  0  0  0
 11 26  1  0  0  0
 11 27  1  0  0  0
 28 29  1  0  0  0
M  CHG  1  28   1
M  END
> <s_m_entry_name>
Schrodinger_fragment_312

> <i_m_number_of_atoms>
29

> <r_m_molecular_weight>
169.24864

> <s_m_molecular_formula>
C9H17N2O1

> <r_epik_Ionization_Penalty>
  0.0004

> <r_epik_Ionization_Penalty_Charging>
  0.0004

> <r_epik_Ionization_Penalty_Neutral>
  0.0000

> <r_epik_State_Penalty>
  0.0000

> <i_epik_Tot_Q>
1

> <r_epik_Metal_State_Penalty>
  0.0000

> <b_epik_Metal_Only>
0

> <s_m_entry_id>
4699

> <s_canvas_Unique_SMILES_Stereo>
C1CN(C)C(=O)[C@]12CCC[N@H+]2C

$$$$
Schrodinger_fragment_252
                    3D
 Structure written by MMmdl.
 26 27  0  0  1  0            999 V2000
    0.0230   -0.4837   -0.5374 C   0  0  0  0  0  0
   -0.1978   -1.4012    0.6692 C   0  0  0  0  0  0
    2.1565   -1.3430    0.1760 C   0  0  1  0  0  0
    1.3664   -0.9538   -1.0906 C   0  0  0  0  0  0
    3.1452   -2.4798   -0.0641 C   0  0  0  0  0  0
    4.4059   -2.0385    0.0094 N   0  0  0  0  0  0
    4.4891   -0.6129    0.2867 C   0  0  0  0  0  0
    3.0647   -0.2138    0.7053 C   0  0  0  0  0  0
    2.7966   -3.6488   -0.2566 O   0  0  0  0  0  0
    5.6070   -2.8501   -0.1490 C   0  0  0  0  0  0
   -0.7851   -0.5410   -1.2679 H   0  0  0  0  0  0
    0.1006    0.5539   -0.2076 H   0  0  0  0  0  0
   -0.7901   -0.9229    1.4504 H   0  0  0  0  0  0
   -0.7235   -2.3067    0.3628 H   0  0  0  0  0  0
    1.2143   -1.8193   -1.7385 H   0  0  0  0  0  0
    1.8632   -0.1868   -1.6859 H   0  0  0  0  0  0
    5.2185   -0.3925    1.0677 H   0  0  0  0  0  0
    4.7921   -0.0873   -0.6206 H   0  0  0  0  0  0
    2.7915    0.7682    0.3174 H   0  0  0  0  0  0
    3.0134   -0.1500    1.7932 H   0  0  0  0  0  0
    6.5048   -2.2312   -0.1538 H   0  0  0  0  0  0
    5.5768   -3.4052   -1.0877 H   0  0  0  0  0  0
    5.6941   -3.5673    0.6682 H   0  0  0  0  0  0
    1.1458   -1.7815    1.1576 N   0  3  0  0  0  0
    1.3447   -1.3980    2.0664 H   0  0  0  0  0  0
    1.2164   -2.7872    1.2132 H   0  0  0  0  0  0
  1  2  1  0  0  0
  1  4  1  0  0  0
  1 11  1  0  0  0
  1 12  1  0  0  0
  2 13  1  0  0  0
  2 14  1  0  0  0
  2 24  1  0  0  0
  3  4  1  0  0  0
  3  5  1  0  0  0
  3  8  1  0  0  0
  3 24  1  0  0  0
  4 15  1  0  0  0
  4 16  1  0  0  0
  5  6  1  0  0  0
  5  9  2  0  0  0
  6  7  1  0  0  0
  6 10  1  0  0  0
  7  8  1  0  0  0
  7 17  1  0  0  0
  7 18  1  0  0  0
  8 19  1  0  0  0
  8 20  1  0  0  0
 10 21  1  0  0  0
 10 22  1  0  0  0
 10 23  1  0  0  0
 24 25  1  0  0  0
 24 26  1  0  0  0
M  CHG  1  24   1
M  END
> <s_m_entry_name>
Schrodinger_fragment_313

> <i_m_number_of_atoms>
26

> <r_m_molecular_weight>
155.22155

> <s_m_molecular_formula>
C8H15N2O1

> <r_epik_Ionization_Penalty>
  0.0015

> <r_epik_Ionization_Penalty_Charging>
  0.0015

> <r_epik_Ionization_Penalty_Neutral>
  0.0000

> <r_epik_State_Penalty>
  0.0000

> <i_epik_Tot_Q>
1

> <r_epik_Metal_State_Penalty>
  0.0000

> <b_epik_Metal_Only>
0

> <s_m_entry_id>
4700

> <s_canvas_Unique_SMILES_Stereo>
C1CN(C)C(=O)[C@]12CCC[NH2+]2

$$$$
Schrodinger_fragment_253
                    3D
 Structure written by MMmdl.
 23 24  0  0  1  0            999 V2000
    0.0149   -0.5355    0.5262 C   0  0  0  0  0  0
   -0.1264   -1.4943   -0.6602 C   0  0  0  0  0  0
    2.2066   -1.3057   -0.1065 C   0  0  2  0  0  0
    1.3644   -0.9223    1.1274 C   0  0  0  0  0  0
    3.2391   -2.3899    0.1869 C   0  0  0  0  0  0
    4.4735   -1.9059    0.1050 N   0  0  0  0  0  0
    4.5150   -0.4895   -0.2136 C   0  0  0  0  0  0
    3.0780   -0.1502   -0.6449 C   0  0  0  0  0  0
    2.9507   -3.5641    0.4226 O   0  0  0  0  0  0
    0.0500    0.4956    0.1701 H   0  0  0  0  0  0
   -0.8091   -0.6145    1.2365 H   0  0  0  0  0  0
   -0.6148   -2.4168   -0.3432 H   0  0  0  0  0  0
   -0.7193   -1.0670   -1.4698 H   0  0  0  0  0  0
    1.8065   -0.1157    1.7133 H   0  0  0  0  0  0
    1.2381   -1.7766    1.7953 H   0  0  0  0  0  0
    5.3080   -2.4586    0.2538 H   0  0  0  0  0  0
    4.8019    0.0737    0.6763 H   0  0  0  0  0  0
    5.2408   -0.2751   -0.9995 H   0  0  0  0  0  0
    3.0306   -0.0990   -1.7335 H   0  0  0  0  0  0
    2.7675    0.8255   -0.2696 H   0  0  0  0  0  0
    1.2475   -1.8192   -1.1017 N   0  3  0  0  0  0
    1.3731   -2.8205   -1.1252 H   0  0  0  0  0  0
    1.4552   -1.4512   -2.0147 H   0  0  0  0  0  0
  1  2  1  0  0  0
  1  4  1  0  0  0
  1 10  1  0  0  0
  1 11  1  0  0  0
  2 12  1  0  0  0
  2 13  1  0  0  0
  2 21  1  0  0  0
  3  4  1  0  0  0
  3  5  1  0  0  0
  3  8  1  0  0  0
  3 21  1  0  0  0
  4 14  1  0  0  0
  4 15  1  0  0  0
  5  6  1  0  0  0
  5  9  2  0  0  0
  6  7  1  0  0  0
  6 16  1  0  0  0
  7  8  1  0  0  0
  7 17  1  0  0  0
  7 18  1  0  0  0
  8 19  1  0  0  0
  8 20  1  0  0  0
 21 22  1  0  0  0
 21 23  1  0  0  0
M  CHG  1  21   1
M  END
> <s_m_entry_name>
Schrodinger_fragment_314

> <i_m_number_of_atoms>
23

> <r_m_molecular_weight>
141.19446

> <s_m_molecular_formula>
C7H13N2O1

> <r_epik_Ionization_Penalty>
  0.0028

> <r_epik_Ionization_Penalty_Charging>
  0.0019

> <r_epik_Ionization_Penalty_Neutral>
  0.0009

> <r_epik_State_Penalty>
  0.0000

> <i_epik_Tot_Q>
1

> <r_epik_Metal_State_Penalty>
  0.5395

> <b_epik_Metal_Only>
0

> <s_m_entry_id>
4701

> <s_canvas_Unique_SMILES_Stereo>
C1CNC(=O)[C@@]12CCC[NH2+]2

$$$$
Schrodinger_fragment_253_a
                    3D
 Structure written by MMmdl.
 22 23  0  0  1  0            999 V2000
    0.0565   -0.5241    0.5429 C   0  0  0  0  0  0
   -0.1123   -1.4642   -0.6577 C   0  0  0  0  0  0
    2.2252   -1.3078   -0.1308 C   0  0  2  0  0  0
    1.4126   -0.9239    1.1220 C   0  0  0  0  0  0
    3.3050   -2.3504    0.1215 C   0  0  0  0  0  0
    4.4739   -1.8734    0.1014 N   0  0  0  0  0  0
    4.4348   -0.4398   -0.1512 C   0  0  0  0  0  0
    3.0374   -0.1476   -0.7009 C   0  0  0  0  0  0
    2.9891   -3.5345    0.2771 O   0  5  0  0  0  0
    0.0908    0.5109    0.1997 H   0  0  0  0  0  0
   -0.7575   -0.6097    1.2634 H   0  0  0  0  0  0
   -0.6538   -2.3646   -0.3657 H   0  0  0  0  0  0
   -0.6659   -0.9931   -1.4705 H   0  0  0  0  0  0
    1.8781   -0.1345    1.7128 H   0  0  0  0  0  0
    1.2839   -1.7881    1.7759 H   0  0  0  0  0  0
    4.6066    0.1117    0.7762 H   0  0  0  0  0  0
    5.2070   -0.1338   -0.8600 H   0  0  0  0  0  0
    3.0623   -0.1800   -1.7916 H   0  0  0  0  0  0
    2.6639    0.8355   -0.4104 H   0  0  0  0  0  0
    1.2469   -1.8505   -1.0823 N   0  3  0  0  0  0
    1.3736   -2.8494   -0.9838 H   0  0  0  0  0  0
    1.4665   -1.5888   -2.0272 H   0  0  0  0  0  0
  1  2  1  0  0  0
  1  4  1  0  0  0
  1 10  1  0  0  0
  1 11  1  0  0  0
  2 12  1  0  0  0
  2 13  1  0  0  0
  2 20  1  0  0  0
  3  4  1  0  0  0
  3  5  1  0  0  0
  3  8  1  0  0  0
  3 20  1  0  0  0
  4 14  1  0  0  0
  4 15  1  0  0  0
  5  6  2  0  0  0
  5  9  1  0  0  0
  6  7  1  0  0  0
  7  8  1  0  0  0
  7 16  1  0  0  0
  7 17  1  0  0  0
  8 18  1  0  0  0
  8 19  1  0  0  0
 20 21  1  0  0  0
 20 22  1  0  0  0
M  CHG  2   9  -1  20   1
M  END
> <s_m_entry_name>
Schrodinger_fragment_314

> <i_m_number_of_atoms>
23

> <r_m_molecular_weight>
141.19446

> <s_m_molecular_formula>
C7H13N2O1

> <r_epik_Ionization_Penalty>
  3.8597

> <r_epik_Ionization_Penalty_Charging>
  3.8597

> <r_epik_Ionization_Penalty_Neutral>
  0.0000

> <r_epik_State_Penalty>
  3.8582

> <i_epik_Tot_Q>
0

> <r_epik_Metal_State_Penalty>
  0.3049

> <b_epik_Metal_Only>
1

> <s_m_entry_id>
4702

> <s_canvas_Unique_SMILES_Stereo>
C1CN=C([O-])[C@@]12CCC[NH2+]2

$$$$
Schrodinger_fragment_254
                    3D
 Structure written by MMmdl.
 26 27  0  0  1  0            999 V2000
   -0.1195   -0.8887    0.9972 C   0  0  0  0  0  0
   -0.3091   -1.6952   -0.2967 C   0  0  0  0  0  0
    2.0298   -1.1414   -0.1186 C   0  0  2  0  0  0
    1.2630   -0.2429    0.8691 C   0  0  0  0  0  0
    2.7751   -2.2841    0.5967 C   0  0  0  0  0  0
    4.0496   -2.3302    0.2273 N   0  0  0  0  0  0
    4.4178   -1.3102   -0.7355 C   0  0  0  0  0  0
    3.1758   -0.4107   -0.8552 C   0  0  0  0  0  0
    2.2515   -3.0643    1.3934 O   0  0  0  0  0  0
    1.2552   -2.8280   -1.8765 C   0  0  0  0  0  0
   -0.9070   -0.1485    1.1431 H   0  0  0  0  0  0
   -0.1420   -1.5613    1.8560 H   0  0  0  0  0  0
   -0.5722   -2.7263   -0.0548 H   0  0  0  0  0  0
   -1.1147   -1.2893   -0.9095 H   0  0  0  0  0  0
    1.1577    0.7616    0.4573 H   0  0  0  0  0  0
    1.7620   -0.1437    1.8345 H   0  0  0  0  0  0
    4.7113   -3.0097    0.5797 H   0  0  0  0  0  0
    5.2935   -0.7516   -0.4014 H   0  0  0  0  0  0
    4.6606   -1.7790   -1.6906 H   0  0  0  0  0  0
    2.9444   -0.1959   -1.8990 H   0  0  0  0  0  0
    3.3841    0.5484   -0.3792 H   0  0  0  0  0  0
    2.1884   -2.7104   -2.4276 H   0  0  0  0  0  0
    0.4607   -2.9731   -2.6089 H   0  0  0  0  0  0
    1.3199   -3.7398   -1.2820 H   0  0  0  0  0  0
    0.9689   -1.6318   -1.0444 N   0  3  1  0  0  0
    0.8378   -0.8759   -1.6986 H   0  0  0  0  0  0
  1  2  1  0  0  0
  1  4  1  0  0  0
  1 11  1  0  0  0
  1 12  1  0  0  0
  2 13  1  0  0  0
  2 14  1  0  0  0
  2 25  1  0  0  0
  3  4  1  0  0  0
  3  5  1  0  0  0
  3  8  1  0  0  0
  3 25  1  0  0  0
  4 15  1  0  0  0
  4 16  1  0  0  0
  5  6  1  0  0  0
  5  9  2  0  0  0
  6  7  1  0  0  0
  6 17  1  0  0  0
  7  8  1  0  0  0
  7 18  1  0  0  0
  7 19  1  0  0  0
  8 20  1  0  0  0
  8 21  1  0  0  0
 10 22  1  0  0  0
 10 23  1  0  0  0
 10 24  1  0  0  0
 10 25  1  0  0  0
 25 26  1  0  0  0
M  CHG  1  25   1
M  END
> <s_m_entry_name>
Schrodinger_fragment_315

> <i_m_number_of_atoms>
26

> <r_m_molecular_weight>
155.22155

> <s_m_molecular_formula>
C8H15N2O1

> <r_epik_Ionization_Penalty>
  0.0019

> <r_epik_Ionization_Penalty_Charging>
  0.0005

> <r_epik_Ionization_Penalty_Neutral>
  0.0014

> <r_epik_State_Penalty>
  0.0000

> <i_epik_Tot_Q>
1

> <r_epik_Metal_State_Penalty>
  0.7308

> <b_epik_Metal_Only>
0

> <s_m_entry_id>
4703

> <s_canvas_Unique_SMILES_Stereo>
C[N@H+]1CCC[C@@]12C(=O)NCC2

$$$$
Schrodinger_fragment_254_a
                    3D
 Structure written by MMmdl.
 25 26  0  0  1  0            999 V2000
   -0.1588   -0.8275    0.9469 C   0  0  0  0  0  0
   -0.2811   -1.7461   -0.2777 C   0  0  0  0  0  0
    2.0387   -1.1548   -0.0954 C   0  0  2  0  0  0
    1.2631   -0.2567    0.8938 C   0  0  0  0  0  0
    2.8268   -2.2888    0.5964 C   0  0  0  0  0  0
    4.0350   -2.3573    0.2315 N   0  0  0  0  0  0
    4.3463   -1.3537   -0.7712 C   0  0  0  0  0  0
    3.1571   -0.3941   -0.8133 C   0  0  0  0  0  0
    2.2879   -3.0353    1.4204 O   0  5  0  0  0  0
    1.2833   -2.8012   -1.8984 C   0  0  0  0  0  0
   -0.9071   -0.0342    0.9355 H   0  0  0  0  0  0
   -0.3079   -1.4037    1.8609 H   0  0  0  0  0  0
   -0.4287   -2.7753    0.0535 H   0  0  0  0  0  0
   -1.1320   -1.4807   -0.9060 H   0  0  0  0  0  0
    1.2119    0.7625    0.5088 H   0  0  0  0  0  0
    1.7312   -0.2003    1.8776 H   0  0  0  0  0  0
    5.2684   -0.8213   -0.5286 H   0  0  0  0  0  0
    4.4947   -1.8263   -1.7446 H   0  0  0  0  0  0
    2.9032   -0.0899   -1.8298 H   0  0  0  0  0  0
    3.4177    0.5133   -0.2656 H   0  0  0  0  0  0
    2.2015   -2.6463   -2.4643 H   0  0  0  0  0  0
    0.4781   -2.9539   -2.6171 H   0  0  0  0  0  0
    1.3872   -3.7204   -1.3215 H   0  0  0  0  0  0
    0.9839   -1.6308   -1.0361 N   0  3  1  0  0  0
    0.8406   -0.8569   -1.6644 H   0  0  0  0  0  0
  1  2  1  0  0  0
  1  4  1  0  0  0
  1 11  1  0  0  0
  1 12  1  0  0  0
  2 13  1  0  0  0
  2 14  1  0  0  0
  2 24  1  0  0  0
  3  4  1  0  0  0
  3  5  1  0  0  0
  3  8  1  0  0  0
  3 24  1  0  0  0
  4 15  1  0  0  0
  4 16  1  0  0  0
  5  6  2  0  0  0
  5  9  1  0  0  0
  6  7  1  0  0  0
  7  8  1  0  0  0
  7 17  1  0  0  0
  7 18  1  0  0  0
  8 19  1  0  0  0
  8 20  1  0  0  0
 10 21  1  0  0  0
 10 22  1  0  0  0
 10 23  1  0  0  0
 10 24  1  0  0  0
 24 25  1  0  0  0
M  CHG  2   9  -1  24   1
M  END
> <s_m_entry_name>
Schrodinger_fragment_315

> <i_m_number_of_atoms>
26

> <r_m_molecular_weight>
155.22155

> <s_m_molecular_formula>
C8H15N2O1

> <r_epik_Ionization_Penalty>
  3.5675

> <r_epik_Ionization_Penalty_Charging>
  3.5675

> <r_epik_Ionization_Penalty_Neutral>
  0.0000

> <r_epik_State_Penalty>
  3.5659

> <i_epik_Tot_Q>
0

> <r_epik_Metal_State_Penalty>
  0.2040

> <b_epik_Metal_Only>
1

> <s_m_entry_id>
4704

> <s_canvas_Unique_SMILES_Stereo>
C[N@H+]1CCC[C@@]12C([O-])=NCC2

$$$$
Schrodinger_fragment_255
                    3D
 Structure written by MMmdl.
 26 27  0  0  1  0            999 V2000
   -0.0817   -0.3068    0.4522 C   0  0  0  0  0  0
   -0.3187   -1.5509   -0.4102 C   0  0  0  0  0  0
    2.0328   -1.4040    0.1195 C   0  0  2  0  0  0
    1.2368   -0.5956    1.1630 C   0  0  0  0  0  0
    3.0316   -2.3795    0.7434 C   0  0  0  0  0  0
    4.2358   -2.2452    0.1992 N   0  0  0  0  0  0
    4.2985   -1.2342   -0.8414 C   0  0  0  0  0  0
    2.9404   -0.5156   -0.7718 C   0  0  0  0  0  0
    2.7336   -3.2109    1.6016 O   0  0  0  0  0  0
    1.2753   -2.6372   -1.9895 C   0  0  0  0  0  0
    0.0310    0.5683   -0.1898 H   0  0  0  0  0  0
   -0.9032   -0.1088    1.1415 H   0  0  0  0  0  0
   -0.9821   -2.2520    0.0974 H   0  0  0  0  0  0
   -0.7924   -1.2831   -1.3560 H   0  0  0  0  0  0
    1.7407    0.3139    1.4909 H   0  0  0  0  0  0
    1.0436   -1.1921    2.0564 H   0  0  0  0  0  0
    5.0354   -2.8079    0.4601 H   0  0  0  0  0  0
    5.1316   -0.5485   -0.6788 H   0  0  0  0  0  0
    4.4422   -1.7154   -1.8102 H   0  0  0  0  0  0
    2.5364   -0.2937   -1.7577 H   0  0  0  0  0  0
    3.0949    0.4548   -0.2993 H   0  0  0  0  0  0
    2.2524   -3.1129   -2.0732 H   0  0  0  0  0  0
    1.2306   -1.8097   -2.6970 H   0  0  0  0  0  0
    0.5313   -3.3697   -2.3035 H   0  0  0  0  0  0
    0.9994   -2.2017   -0.5981 N   0  3  2  0  0  0
    0.9598   -3.0515   -0.0511 H   0  0  0  0  0  0
  1  2  1  0  0  0
  1  4  1  0  0  0
  1 11  1  0  0  0
  1 12  1  0  0  0
  2 13  1  0  0  0
  2 14  1  0  0  0
  2 25  1  0  0  0
  3  4  1  0  0  0
  3  5  1  0  0  0
  3  8  1  0  0  0
  3 25  1  0  0  0
  4 15  1  0  0  0
  4 16  1  0  0  0
  5  6  1  0  0  0
  5  9  2  0  0  0
  6  7  1  0  0  0
  6 17  1  0  0  0
  7  8  1  0  0  0
  7 18  1  0  0  0
  7 19  1  0  0  0
  8 20  1  0  0  0
  8 21  1  0  0  0
 10 22  1  0  0  0
 10 23  1  0  0  0
 10 24  1  0  0  0
 10 25  1  0  0  0
 25 26  1  0  0  0
M  CHG  1  25   1
M  END
> <s_m_entry_name>
Schrodinger_fragment_316

> <i_m_number_of_atoms>
26

> <r_m_molecular_weight>
155.22155

> <s_m_molecular_formula>
C8H15N2O1

> <r_epik_Ionization_Penalty>
  0.0019

> <r_epik_Ionization_Penalty_Charging>
  0.0005

> <r_epik_Ionization_Penalty_Neutral>
  0.0014

> <r_epik_State_Penalty>
  0.0000

> <i_epik_Tot_Q>
1

> <r_epik_Metal_State_Penalty>
  0.7308

> <b_epik_Metal_Only>
0

> <s_m_entry_id>
4705

> <s_canvas_Unique_SMILES_Stereo>
C[N@@H+]1CCC[C@@]12C(=O)NCC2

$$$$
Schrodinger_fragment_255_a
                    3D
 Structure written by MMmdl.
 25 26  0  0  1  0            999 V2000
   -0.0633   -0.2873    0.4405 C   0  0  0  0  0  0
   -0.3127   -1.5298   -0.4227 C   0  0  0  0  0  0
    2.0360   -1.4137    0.1178 C   0  0  2  0  0  0
    1.2396   -0.6068    1.1671 C   0  0  0  0  0  0
    3.0575   -2.3840    0.7077 C   0  0  0  0  0  0
    4.2173   -2.2567    0.2255 N   0  0  0  0  0  0
    4.2542   -1.2363   -0.8110 C   0  0  0  0  0  0
    2.9102   -0.5073   -0.7624 C   0  0  0  0  0  0
    2.7057   -3.2206    1.5451 O   0  5  0  0  0  0
    1.2780   -2.6669   -1.9771 C   0  0  0  0  0  0
    0.0765    0.5847   -0.2000 H   0  0  0  0  0  0
   -0.8890   -0.0730    1.1197 H   0  0  0  0  0  0
   -0.9906   -2.2211    0.0788 H   0  0  0  0  0  0
   -0.7712   -1.2556   -1.3738 H   0  0  0  0  0  0
    1.7582    0.2808    1.5297 H   0  0  0  0  0  0
    1.0123   -1.2195    2.0408 H   0  0  0  0  0  0
    5.0811   -0.5406   -0.6542 H   0  0  0  0  0  0
    4.4041   -1.6976   -1.7895 H   0  0  0  0  0  0
    2.5036   -0.2876   -1.7485 H   0  0  0  0  0  0
    3.0634    0.4611   -0.2843 H   0  0  0  0  0  0
    2.2501   -3.1556   -2.0400 H   0  0  0  0  0  0
    1.2515   -1.8528   -2.7005 H   0  0  0  0  0  0
    0.5273   -3.3964   -2.2810 H   0  0  0  0  0  0
    0.9972   -2.1993   -0.5982 N   0  3  2  0  0  0
    0.9745   -3.0325   -0.0240 H   0  0  0  0  0  0
  1  2  1  0  0  0
  1  4  1  0  0  0
  1 11  1  0  0  0
  1 12  1  0  0  0
  2 13  1  0  0  0
  2 14  1  0  0  0
  2 24  1  0  0  0
  3  4  1  0  0  0
  3  5  1  0  0  0
  3  8  1  0  0  0
  3 24  1  0  0  0
  4 15  1  0  0  0
  4 16  1  0  0  0
  5  6  2  0  0  0
  5  9  1  0  0  0
  6  7  1  0  0  0
  7  8  1  0  0  0
  7 17  1  0  0  0
  7 18  1  0  0  0
  8 19  1  0  0  0
  8 20  1  0  0  0
 10 21  1  0  0  0
 10 22  1  0  0  0
 10 23  1  0  0  0
 10 24  1  0  0  0
 24 25  1  0  0  0
M  CHG  2   9  -1  24   1
M  END
> <s_m_entry_name>
Schrodinger_fragment_316

> <i_m_number_of_atoms>
26

> <r_m_molecular_weight>
155.22155

> <s_m_molecular_formula>
C8H15N2O1

> <r_epik_Ionization_Penalty>
  3.5675

> <r_epik_Ionization_Penalty_Charging>
  3.5675

> <r_epik_Ionization_Penalty_Neutral>
  0.0000

> <r_epik_State_Penalty>
  3.5659

> <i_epik_Tot_Q>
0

> <r_epik_Metal_State_Penalty>
  0.2040

> <b_epik_Metal_Only>
1

> <s_m_entry_id>
4706

> <s_canvas_Unique_SMILES_Stereo>
C[N@@H+]1CCC[C@@]12C([O-])=NCC2

$$$$
Schrodinger_fragment_256
                    3D
 Structure written by MMmdl.
 29 30  0  0  1  0            999 V2000
   -0.0276   -0.9290    1.0635 C   0  0  0  0  0  0
   -0.2608   -1.7465   -0.2162 C   0  0  0  0  0  0
    2.0624   -1.1035   -0.1755 C   0  0  2  0  0  0
    1.3204   -0.2326    0.8556 C   0  0  0  0  0  0
    2.8916   -2.2161    0.4938 C   0  0  0  0  0  0
    4.1487   -2.2191    0.0384 N   0  0  0  0  0  0
    4.4012   -1.1936   -0.9589 C   0  0  0  0  0  0
    3.1307   -0.3290   -0.9780 C   0  0  0  0  0  0
    2.4335   -3.0061    1.3254 O   0  0  0  0  0  0
    1.2489   -2.8193   -1.8887 C   0  0  0  0  0  0
    5.1977   -3.1483    0.4417 C   0  0  0  0  0  0
   -0.8324   -0.2177    1.2529 H   0  0  0  0  0  0
    0.0235   -1.5986    1.9234 H   0  0  0  0  0  0
   -0.4678   -2.7865    0.0419 H   0  0  0  0  0  0
   -1.1169   -1.3753   -0.7807 H   0  0  0  0  0  0
    1.1537    0.7666    0.4509 H   0  0  0  0  0  0
    1.8698   -0.1125    1.7908 H   0  0  0  0  0  0
    5.2848   -0.6046   -0.7078 H   0  0  0  0  0  0
    4.5719   -1.6633   -1.9290 H   0  0  0  0  0  0
    2.8200   -0.1033   -1.9987 H   0  0  0  0  0  0
    3.3448    0.6273   -0.4987 H   0  0  0  0  0  0
    2.1408   -2.6655   -2.4965 H   0  0  0  0  0  0
    0.4171   -2.9953   -2.5712 H   0  0  0  0  0  0
    1.3851   -3.7282   -1.3017 H   0  0  0  0  0  0
    6.1300   -2.9480   -0.0873 H   0  0  0  0  0  0
    4.9029   -4.1765    0.2276 H   0  0  0  0  0  0
    5.3921   -3.0655    1.5118 H   0  0  0  0  0  0
    0.9677   -1.6348   -1.0379 N   0  3  1  0  0  0
    0.7687   -0.8847   -1.6819 H   0  0  0  0  0  0
  1  2  1  0  0  0
  1  4  1  0  0  0
  1 12  1  0  0  0
  1 13  1  0  0  0
  2 14  1  0  0  0
  2 15  1  0  0  0
  2 28  1  0  0  0
  3  4  1  0  0  0
  3  5  1  0  0  0
  3  8  1  0  0  0
  3 28  1  0  0  0
  4 16  1  0  0  0
  4 17  1  0  0  0
  5  6  1  0  0  0
  5  9  2  0  0  0
  6  7  1  0  0  0
  6 11  1  0  0  0
  7  8  1  0  0  0
  7 18  1  0  0  0
  7 19  1  0  0  0
  8 20  1  0  0  0
  8 21  1  0  0  0
 10 22  1  0  0  0
 10 23  1  0  0  0
 10 24  1  0  0  0
 10 28  1  0  0  0
 11 25  1  0  0  0
 11 26  1  0  0  0
 11 27  1  0  0  0
 28 29  1  0  0  0
M  CHG  1  28   1
M  END
> <s_m_entry_name>
Schrodinger_fragment_317

> <i_m_number_of_atoms>
29

> <r_m_molecular_weight>
169.24864

> <s_m_molecular_formula>
C9H17N2O1

> <r_epik_Ionization_Penalty>
  0.0004

> <r_epik_Ionization_Penalty_Charging>
  0.0004

> <r_epik_Ionization_Penalty_Neutral>
  0.0000

> <r_epik_State_Penalty>
  0.0000

> <i_epik_Tot_Q>
1

> <r_epik_Metal_State_Penalty>
  0.0000

> <b_epik_Metal_Only>
0

> <s_m_entry_id>
4707

> <s_canvas_Unique_SMILES_Stereo>
C1CN(C)C(=O)[C@@]12CCC[N@@H+]2C

$$$$
Schrodinger_fragment_257
                    3D
 Structure written by MMmdl.
 29 30  0  0  1  0            999 V2000
   -0.0480   -0.3058    0.5204 C   0  0  0  0  0  0
   -0.3223   -1.5233   -0.3690 C   0  0  0  0  0  0
    2.0464   -1.4070    0.0866 C   0  0  2  0  0  0
    1.2926   -0.6201    1.1773 C   0  0  0  0  0  0
    3.0727   -2.3911    0.6503 C   0  0  0  0  0  0
    4.2610   -2.2404    0.0546 N   0  0  0  0  0  0
    4.2604   -1.2152   -0.9772 C   0  0  0  0  0  0
    2.9101   -0.4972   -0.8240 C   0  0  0  0  0  0
    2.7994   -3.2360    1.5081 O   0  0  0  0  0  0
    1.2079   -2.6118   -2.0088 C   0  0  0  0  0  0
    5.4542   -3.0340    0.3241 C   0  0  0  0  0  0
    0.0471    0.5869   -0.0997 H   0  0  0  0  0  0
   -0.8442   -0.1237    1.2431 H   0  0  0  0  0  0
   -0.9859   -2.2282    0.1333 H   0  0  0  0  0  0
   -0.8115   -1.2222   -1.2966 H   0  0  0  0  0  0
    1.8136    0.2781    1.5097 H   0  0  0  0  0  0
    1.1263   -1.2374    2.0621 H   0  0  0  0  0  0
    5.0987   -0.5271   -0.8575 H   0  0  0  0  0  0
    4.3464   -1.6858   -1.9579 H   0  0  0  0  0  0
    2.4577   -0.2495   -1.7826 H   0  0  0  0  0  0
    3.0894    0.4602   -0.3338 H   0  0  0  0  0  0
    2.1742   -3.1017   -2.1286 H   0  0  0  0  0  0
    1.1548   -1.7763   -2.7062 H   0  0  0  0  0  0
    0.4431   -3.3290   -2.3076 H   0  0  0  0  0  0
    6.2877   -2.7239   -0.3070 H   0  0  0  0  0  0
    5.2635   -4.0913    0.1351 H   0  0  0  0  0  0
    5.7602   -2.9240    1.3653 H   0  0  0  0  0  0
    0.9815   -2.1878   -0.6045 N   0  3  2  0  0  0
    0.9447   -3.0428   -0.0654 H   0  0  0  0  0  0
  1  2  1  0  0  0
  1  4  1  0  0  0
  1 12  1  0  0  0
  1 13  1  0  0  0
  2 14  1  0  0  0
  2 15  1  0  0  0
  2 28  1  0  0  0
  3  4  1  0  0  0
  3  5  1  0  0  0
  3  8  1  0  0  0
  3 28  1  0  0  0
  4 16  1  0  0  0
  4 17  1  0  0  0
  5  6  1  0  0  0
  5  9  2  0  0  0
  6  7  1  0  0  0
  6 11  1  0  0  0
  7  8  1  0  0  0
  7 18  1  0  0  0
  7 19  1  0  0  0
  8 20  1  0  0  0
  8 21  1  0  0  0
 10 22  1  0  0  0
 10 23  1  0  0  0
 10 24  1  0  0  0
 10 28  1  0  0  0
 11 25  1  0  0  0
 11 26  1  0  0  0
 11 27  1  0  0  0
 28 29  1  0  0  0
M  CHG  1  28   1
M  END
> <s_m_entry_name>
Schrodinger_fragment_318

> <i_m_number_of_atoms>
29

> <r_m_molecular_weight>
169.24864

> <s_m_molecular_formula>
C9H17N2O1

> <r_epik_Ionization_Penalty>
  0.0004

> <r_epik_Ionization_Penalty_Charging>
  0.0004

> <r_epik_Ionization_Penalty_Neutral>
  0.0000

> <r_epik_State_Penalty>
  0.0000

> <i_epik_Tot_Q>
1

> <r_epik_Metal_State_Penalty>
  0.0000

> <b_epik_Metal_Only>
0

> <s_m_entry_id>
4708

> <s_canvas_Unique_SMILES_Stereo>
C1CN(C)C(=O)[C@@]12CCC[N@H+]2C

$$$$
Schrodinger_fragment_258
                    3D
 Structure written by MMmdl.
 26 27  0  0  1  0            999 V2000
    0.0243   -0.5220    0.5924 C   0  0  0  0  0  0
   -0.1988   -1.4426   -0.6113 C   0  0  0  0  0  0
    2.1565   -1.3833   -0.1231 C   0  0  2  0  0  0
    1.3689   -0.9907    1.1441 C   0  0  0  0  0  0
    3.1449   -2.5201    0.1180 C   0  0  0  0  0  0
    4.4057   -2.0797    0.0416 N   0  0  0  0  0  0
    4.4893   -0.6549   -0.2395 C   0  0  0  0  0  0
    3.0644   -0.2560   -0.6567 C   0  0  0  0  0  0
    2.7959   -3.6885    0.3138 O   0  0  0  0  0  0
    5.6065   -2.8916    0.2003 C   0  0  0  0  0  0
    0.1013    0.5148    0.2599 H   0  0  0  0  0  0
   -0.7822   -0.5775    1.3248 H   0  0  0  0  0  0
   -0.7232   -2.3477   -0.3013 H   0  0  0  0  0  0
   -0.7933   -0.9667   -1.3922 H   0  0  0  0  0  0
    1.8669   -0.2221    1.7363 H   0  0  0  0  0  0
    1.2181   -1.8544    1.7947 H   0  0  0  0  0  0
    4.7943   -0.1271    0.6659 H   0  0  0  0  0  0
    5.2174   -0.4370   -1.0224 H   0  0  0  0  0  0
    3.0114   -0.1948   -1.7446 H   0  0  0  0  0  0
    2.7925    0.7272   -0.2707 H   0  0  0  0  0  0
    6.5046   -2.2730    0.2036 H   0  0  0  0  0  0
    5.6927   -3.6101   -0.6158 H   0  0  0  0  0  0
    5.5768   -3.4452    1.1399 H   0  0  0  0  0  0
    1.1438   -1.8235   -1.1019 N   0  3  0  0  0  0
    1.2145   -2.8292   -1.1563 H   0  0  0  0  0  0
    1.3407   -1.4410   -2.0115 H   0  0  0  0  0  0
  1  2  1  0  0  0
  1  4  1  0  0  0
  1 11  1  0  0  0
  1 12  1  0  0  0
  2 13  1  0  0  0
  2 14  1  0  0  0
  2 24  1  0  0  0
  3  4  1  0  0  0
  3  5  1  0  0  0
  3  8  1  0  0  0
  3 24  1  0  0  0
  4 15  1  0  0  0
  4 16  1  0  0  0
  5  6  1  0  0  0
  5  9  2  0  0  0
  6  7  1  0  0  0
  6 10  1  0  0  0
  7  8  1  0  0  0
  7 17  1  0  0  0
  7 18  1  0  0  0
  8 19  1  0  0  0
  8 20  1  0  0  0
 10 21  1  0  0  0
 10 22  1  0  0  0
 10 23  1  0  0  0
 24 25  1  0  0  0
 24 26  1  0  0  0
M  CHG  1  24   1
M  END
> <s_m_entry_name>
Schrodinger_fragment_319

> <i_m_number_of_atoms>
26

> <r_m_molecular_weight>
155.22155

> <s_m_molecular_formula>
C8H15N2O1

> <r_epik_Ionization_Penalty>
  0.0015

> <r_epik_Ionization_Penalty_Charging>
  0.0015

> <r_epik_Ionization_Penalty_Neutral>
  0.0000

> <r_epik_State_Penalty>
  0.0000

> <i_epik_Tot_Q>
1

> <r_epik_Metal_State_Penalty>
  0.0000

> <b_epik_Metal_Only>
0

> <s_m_entry_id>
4709

> <s_canvas_Unique_SMILES_Stereo>
C1CN(C)C(=O)[C@@]12CCC[NH2+]2

$$$$
Schrodinger_fragment_259
                    3D
 Structure written by MMmdl.
 18 19  0  0  1  0            999 V2000
    2.2268    2.1516    0.0232 C   0  0  0  0  0  0
    2.2116    0.7605    0.0242 C   0  0  0  0  0  0
    3.4086    0.0217    0.0280 C   0  0  0  0  0  0
    4.6316    0.7293    0.0308 C   0  0  0  0  0  0
    4.6454    2.1450    0.0298 C   0  0  0  0  0  0
    3.4345    2.8731    0.0260 C   0  0  0  0  0  0
    0.8526    2.6610    0.0191 C   0  0  0  0  0  0
   -0.1021    1.4649    0.0174 C   0  0  0  0  0  0
    0.8062    0.2100    0.0207 C   0  0  0  0  0  0
    0.4847    3.8390    0.0173 O   0  0  0  0  0  0
    3.3958   -1.0600    0.0287 H   0  0  0  0  0  0
    5.5658    0.1842    0.0337 H   0  0  0  0  0  0
    5.5895    2.6729    0.0320 H   0  0  0  0  0  0
    3.4334    3.9546    0.0252 H   0  0  0  0  0  0
   -0.7396    1.4984    0.9003 H   0  0  0  0  0  0
   -0.7348    1.4971   -0.8690 H   0  0  0  0  0  0
    0.6404   -0.4051   -0.8643 H   0  0  0  0  0  0
    0.6355   -0.4038    0.9057 H   0  0  0  0  0  0
  1  2  2  0  0  0
  1  6  1  0  0  0
  1  7  1  0  0  0
  2  3  1  0  0  0
  2  9  1  0  0  0
  3  4  2  0  0  0
  3 11  1  0  0  0
  4  5  1  0  0  0
  4 12  1  0  0  0
  5  6  2  0  0  0
  5 13  1  0  0  0
  6 14  1  0  0  0
  7  8  1  0  0  0
  7 10  2  0  0  0
  8  9  1  0  0  0
  8 15  1  0  0  0
  8 16  1  0  0  0
  9 17  1  0  0  0
  9 18  1  0  0  0
M  END
> <s_m_entry_name>
Schrodinger_fragment_320

> <i_m_number_of_atoms>
18

> <r_m_molecular_weight>
132.16351

> <s_m_molecular_formula>
C9H8O1

> <r_epik_Ionization_Penalty>
  0.0000

> <r_epik_Ionization_Penalty_Charging>
  0.0000

> <r_epik_Ionization_Penalty_Neutral>
  0.0000

> <r_epik_State_Penalty>
  0.0000

> <i_epik_Tot_Q>
0

> <r_epik_Metal_State_Penalty>
  0.0000

> <b_epik_Metal_Only>
0

> <s_m_entry_id>
4710

> <s_canvas_Unique_SMILES_Stereo>
O=C1CCc(c12)cccc2

$$$$
Schrodinger_fragment_260
                    3D
 Structure written by MMmdl.
 16 17  0  0  1  0            999 V2000
    2.2222    3.1880    0.0207 C   0  0  0  0  0  0
    2.2219    1.8055    0.0240 C   0  0  0  0  0  0
    3.4208    1.0702    0.0297 C   0  0  0  0  0  0
    4.6372    1.7919    0.0321 C   0  0  0  0  0  0
    4.6349    3.2096    0.0287 C   0  0  0  0  0  0
    3.4171    3.9283    0.0229 C   0  0  0  0  0  0
    0.8038    3.6736    0.0148 C   0  0  0  0  0  0
    0.0421    2.4617    0.0151 O   0  0  0  0  0  0
    0.8250    1.3486    0.0204 C   0  0  0  0  0  0
    0.4208    0.1840    0.0218 O   0  0  0  0  0  0
    3.4091   -0.0112    0.0322 H   0  0  0  0  0  0
    5.5775    1.2574    0.0365 H   0  0  0  0  0  0
    5.5736    3.7468    0.0306 H   0  0  0  0  0  0
    3.4049    5.0096    0.0203 H   0  0  0  0  0  0
    0.5916    4.2701    0.9023 H   0  0  0  0  0  0
    0.5975    4.2659   -0.8770 H   0  0  0  0  0  0
  1  2  2  0  0  0
  1  6  1  0  0  0
  1  7  1  0  0  0
  2  3  1  0  0  0
  2  9  1  0  0  0
  3  4  2  0  0  0
  3 11  1  0  0  0
  4  5  1  0  0  0
  4 12  1  0  0  0
  5  6  2  0  0  0
  5 13  1  0  0  0
  6 14  1  0  0  0
  7  8  1  0  0  0
  7 15  1  0  0  0
  7 16  1  0  0  0
  8  9  1  0  0  0
  9 10  2  0  0  0
M  END
> <s_m_entry_name>
Schrodinger_fragment_321

> <i_m_number_of_atoms>
16

> <r_m_molecular_weight>
134.13582

> <s_m_molecular_formula>
C8H6O2

> <r_epik_Ionization_Penalty>
  0.0000

> <r_epik_Ionization_Penalty_Charging>
  0.0000

> <r_epik_Ionization_Penalty_Neutral>
  0.0000

> <r_epik_State_Penalty>
  0.0000

> <i_epik_Tot_Q>
0

> <r_epik_Metal_State_Penalty>
  0.0000

> <b_epik_Metal_Only>
0

> <s_m_entry_id>
4711

> <s_canvas_Unique_SMILES_Stereo>
O=C1OCc(c12)cccc2

$$$$
Schrodinger_fragment_261
                    3D
 Structure written by MMmdl.
 23 24  0  0  1  0            999 V2000
    2.1981    3.5645   -0.3159 C   0  0  2  0  0  0
    2.2326    2.1187   -0.0950 N   0  0  0  0  0  0
    3.3517    1.3724    0.0327 C   0  0  0  0  0  0
    4.7077    2.0896    0.1540 C   0  0  0  0  0  0
    4.6861    3.5893   -0.2082 C   0  0  0  0  0  0
    3.4119    4.2799    0.2915 C   0  0  0  0  0  0
    0.8401    4.0094    0.2266 C   0  0  0  0  0  0
   -0.0570    2.8080   -0.0573 C   0  0  0  0  0  0
    0.8758    1.5953    0.0538 C   0  0  0  0  0  0
    3.3181    0.1420    0.1255 O   0  0  0  0  0  0
    2.2072    3.7141   -1.3976 H   0  0  0  0  0  0
    5.0297    1.9797    1.1899 H   0  0  0  0  0  0
    5.4478    1.5688   -0.4542 H   0  0  0  0  0  0
    5.5647    4.0822    0.2094 H   0  0  0  0  0  0
    4.7605    3.7013   -1.2909 H   0  0  0  0  0  0
    3.4121    5.3337    0.0092 H   0  0  0  0  0  0
    3.3725    4.2460    1.3816 H   0  0  0  0  0  0
    0.8974    4.1794    1.3030 H   0  0  0  0  0  0
    0.4783    4.9275   -0.2384 H   0  0  0  0  0  0
   -0.9089    2.7483    0.6213 H   0  0  0  0  0  0
   -0.4491    2.8761   -1.0734 H   0  0  0  0  0  0
    0.6524    0.8422   -0.7035 H   0  0  0  0  0  0
    0.7779    1.1255    1.0340 H   0  0  0  0  0  0
  1  2  1  0  0  0
  1  6  1  0  0  0
  1  7  1  0  0  0
  1 11  1  0  0  0
  2  3  1  0  0  0
  2  9  1  0  0  0
  3  4  1  0  0  0
  3 10  2  0  0  0
  4  5  1  0  0  0
  4 12  1  0  0  0
  4 13  1  0  0  0
  5  6  1  0  0  0
  5 14  1  0  0  0
  5 15  1  0  0  0
  6 16  1  0  0  0
  6 17  1  0  0  0
  7  8  1  0  0  0
  7 18  1  0  0  0
  7 19  1  0  0  0
  8  9  1  0  0  0
  8 20  1  0  0  0
  8 21  1  0  0  0
  9 22  1  0  0  0
  9 23  1  0  0  0
M  END
> <s_m_entry_name>
Schrodinger_fragment_322

> <i_m_number_of_atoms>
23

> <r_m_molecular_weight>
139.19891

> <s_m_molecular_formula>
C8H13N1O1

> <r_epik_Ionization_Penalty>
  0.0000

> <r_epik_Ionization_Penalty_Charging>
  0.0000

> <r_epik_Ionization_Penalty_Neutral>
  0.0000

> <r_epik_State_Penalty>
  0.0000

> <i_epik_Tot_Q>
0

> <r_epik_Metal_State_Penalty>
  0.0000

> <b_epik_Metal_Only>
0

> <s_m_entry_id>
4712

> <s_canvas_Unique_SMILES_Stereo>
C1CCN([C@@H]12)C(=O)CCC2

$$$$
Schrodinger_fragment_262
                    3D
 Structure written by MMmdl.
 23 24  0  0  1  0            999 V2000
    2.1581    3.6084    0.3823 C   0  0  1  0  0  0
    2.1935    2.1637    0.1545 N   0  0  0  0  0  0
    3.3131    1.4177    0.0303 C   0  0  0  0  0  0
    4.6702    2.1350   -0.0786 C   0  0  0  0  0  0
    4.6467    3.6329    0.2909 C   0  0  0  0  0  0
    3.3760    4.3264   -0.2137 C   0  0  0  0  0  0
    0.8038    4.0565   -0.1668 C   0  0  0  0  0  0
   -0.0956    2.8540    0.1052 C   0  0  0  0  0  0
    0.8375    1.6415   -0.0058 C   0  0  0  0  0  0
    3.2797    0.1878   -0.0688 O   0  0  0  0  0  0
    2.1601    3.7527    1.4648 H   0  0  0  0  0  0
    5.4061    1.6109    0.5318 H   0  0  0  0  0  0
    4.9989    2.0301   -1.1129 H   0  0  0  0  0  0
    4.7141    3.7395    1.3746 H   0  0  0  0  0  0
    5.5281    4.1275   -0.1185 H   0  0  0  0  0  0
    3.3436    4.2979   -1.3042 H   0  0  0  0  0  0
    3.3747    5.3788    0.0738 H   0  0  0  0  0  0
    0.4392    4.9724    0.3003 H   0  0  0  0  0  0
    0.8681    4.2318   -1.2420 H   0  0  0  0  0  0
   -0.4942    2.9172    1.1191 H   0  0  0  0  0  0
   -0.9431    2.7980   -0.5792 H   0  0  0  0  0  0
    0.7459    1.1767   -0.9890 H   0  0  0  0  0  0
    0.6089    0.8848    0.7463 H   0  0  0  0  0  0
  1  2  1  0  0  0
  1  6  1  0  0  0
  1  7  1  0  0  0
  1 11  1  0  0  0
  2  3  1  0  0  0
  2  9  1  0  0  0
  3  4  1  0  0  0
  3 10  2  0  0  0
  4  5  1  0  0  0
  4 12  1  0  0  0
  4 13  1  0  0  0
  5  6  1  0  0  0
  5 14  1  0  0  0
  5 15  1  0  0  0
  6 16  1  0  0  0
  6 17  1  0  0  0
  7  8  1  0  0  0
  7 18  1  0  0  0
  7 19  1  0  0  0
  8  9  1  0  0  0
  8 20  1  0  0  0
  8 21  1  0  0  0
  9 22  1  0  0  0
  9 23  1  0  0  0
M  END
> <s_m_entry_name>
Schrodinger_fragment_323

> <i_m_number_of_atoms>
23

> <r_m_molecular_weight>
139.19891

> <s_m_molecular_formula>
C8H13N1O1

> <r_epik_Ionization_Penalty>
  0.0000

> <r_epik_Ionization_Penalty_Charging>
  0.0000

> <r_epik_Ionization_Penalty_Neutral>
  0.0000

> <r_epik_State_Penalty>
  0.0000

> <i_epik_Tot_Q>
0

> <r_epik_Metal_State_Penalty>
  0.0000

> <b_epik_Metal_Only>
0

> <s_m_entry_id>
4713

> <s_canvas_Unique_SMILES_Stereo>
C1CCN([C@H]12)C(=O)CCC2

$$$$
Schrodinger_fragment_263
                    3D
 Structure written by MMmdl.
 17 18  0  0  1  0            999 V2000
    2.2227    2.1154    0.0224 C   0  0  0  0  0  0
    2.2230    0.7324    0.0222 C   0  0  0  0  0  0
    3.4192   -0.0052    0.0258 C   0  0  0  0  0  0
    4.6345    0.7187    0.0298 C   0  0  0  0  0  0
    4.6338    2.1371    0.0300 C   0  0  0  0  0  0
    3.4164    2.8577    0.0263 C   0  0  0  0  0  0
    0.8248    2.6100    0.0182 C   0  0  0  0  0  0
    0.0447    1.5199    0.0155 N   0  0  0  0  0  0
    0.7923    0.2517    0.0177 C   0  0  0  0  0  0
    0.4721    3.7900    0.0172 O   0  0  0  0  0  0
    3.4115   -1.0868    0.0256 H   0  0  0  0  0  0
    5.5749    0.1845    0.0326 H   0  0  0  0  0  0
    5.5732    2.6732    0.0330 H   0  0  0  0  0  0
    3.4006    3.9390    0.0264 H   0  0  0  0  0  0
   -0.9651    1.5532    0.0124 H   0  0  0  0  0  0
    0.5761   -0.3389   -0.8735 H   0  0  0  0  0  0
    0.5705   -0.3392    0.9072 H   0  0  0  0  0  0
  1  2  2  0  0  0
  1  6  1  0  0  0
  1  7  1  0  0  0
  2  3  1  0  0  0
  2  9  1  0  0  0
  3  4  2  0  0  0
  3 11  1  0  0  0
  4  5  1  0  0  0
  4 12  1  0  0  0
  5  6  2  0  0  0
  5 13  1  0  0  0
  6 14  1  0  0  0
  7  8  1  0  0  0
  7 10  2  0  0  0
  8  9  1  0  0  0
  8 15  1  0  0  0
  9 16  1  0  0  0
  9 17  1  0  0  0
M  END
> <s_m_entry_name>
Schrodinger_fragment_324

> <i_m_number_of_atoms>
17

> <r_m_molecular_weight>
133.15109

> <s_m_molecular_formula>
C8H7N1O1

> <r_epik_Ionization_Penalty>
  0.0000

> <r_epik_Ionization_Penalty_Charging>
  0.0000

> <r_epik_Ionization_Penalty_Neutral>
  0.0000

> <r_epik_State_Penalty>
  0.0000

> <i_epik_Tot_Q>
0

> <r_epik_Metal_State_Penalty>
  0.0252

> <b_epik_Metal_Only>
0

> <s_m_entry_id>
4714

> <s_canvas_Unique_SMILES_Stereo>
O=C1NCc(c12)cccc2

$$$$
Schrodinger_fragment_263_a
                    3D
 Structure written by MMmdl.
 16 17  0  0  1  0            999 V2000
    2.2176    2.1376    0.0224 C   0  0  0  0  0  0
    2.2169    0.7575    0.0222 C   0  0  0  0  0  0
    3.4100    0.0132    0.0258 C   0  0  0  0  0  0
    4.6307    0.7270    0.0297 C   0  0  0  0  0  0
    4.6374    2.1444    0.0300 C   0  0  0  0  0  0
    3.4224    2.8690    0.0263 C   0  0  0  0  0  0
    0.8046    2.5176    0.0181 C   0  0  0  0  0  0
    0.0128    1.5288    0.0154 N   0  0  0  0  0  0
    0.7901    0.2729    0.0177 C   0  0  0  0  0  0
    0.6129    3.7362    0.0177 O   0  5  0  0  0  0
    3.3937   -1.0680    0.0256 H   0  0  0  0  0  0
    5.5676    0.1864    0.0326 H   0  0  0  0  0  0
    5.5787    2.6769    0.0330 H   0  0  0  0  0  0
    3.4125    3.9497    0.0265 H   0  0  0  0  0  0
    0.5892   -0.3284   -0.8712 H   0  0  0  0  0  0
    0.5837   -0.3287    0.9050 H   0  0  0  0  0  0
  1  2  2  0  0  0
  1  6  1  0  0  0
  1  7  1  0  0  0
  2  3  1  0  0  0
  2  9  1  0  0  0
  3  4  2  0  0  0
  3 11  1  0  0  0
  4  5  1  0  0  0
  4 12  1  0  0  0
  5  6  2  0  0  0
  5 13  1  0  0  0
  6 14  1  0  0  0
  7  8  2  0  0  0
  7 10  1  0  0  0
  8  9  1  0  0  0
  9 15  1  0  0  0
  9 16  1  0  0  0
M  CHG  1  10  -1
M  END
> <s_m_entry_name>
Schrodinger_fragment_324

> <i_m_number_of_atoms>
17

> <r_m_molecular_weight>
133.15109

> <s_m_molecular_formula>
C8H7N1O1

> <r_epik_Ionization_Penalty>
  5.9507

> <r_epik_Ionization_Penalty_Charging>
  5.9507

> <r_epik_Ionization_Penalty_Neutral>
  0.0000

> <r_epik_State_Penalty>
  5.9507

> <i_epik_Tot_Q>
-1

> <r_epik_Metal_State_Penalty>
  1.8832

> <b_epik_Metal_Only>
1

> <s_m_entry_id>
4715

> <s_canvas_Unique_SMILES_Stereo>
[O-]C1=NCc(c12)cccc2

$$$$
Schrodinger_fragment_264
                    3D
 Structure written by MMmdl.
 18 19  0  0  1  0            999 V2000
    3.5794    2.1439    0.0241 C   0  0  0  0  0  0
    3.5751    0.7588    0.0230 C   0  0  0  0  0  0
    4.7616    0.0068    0.0251 C   0  0  0  0  0  0
    5.9829    0.7194    0.0285 C   0  0  0  0  0  0
    5.9939    2.1375    0.0297 C   0  0  0  0  0  0
    4.7837    2.8696    0.0275 C   0  0  0  0  0  0
    2.1875    2.5696    0.0212 C   0  0  0  0  0  0
    1.3849    1.3477    0.0184 C   0  0  0  0  0  0
    2.2470    0.3191    0.0195 N   0  0  0  0  0  0
    0.1564    1.2401    0.0154 O   0  0  0  0  0  0
    1.6800    3.8140    0.0210 C   0  0  0  0  0  0
    4.7461   -1.0742    0.0242 H   0  0  0  0  0  0
    6.9181    0.1765    0.0302 H   0  0  0  0  0  0
    6.9378    2.6655    0.0323 H   0  0  0  0  0  0
    4.7855    3.9505    0.0283 H   0  0  0  0  0  0
    1.9851   -0.6564    0.0182 H   0  0  0  0  0  0
    0.6123    3.9831    0.0187 H   0  0  0  0  0  0
    2.3235    4.6812    0.0232 H   0  0  0  0  0  0
  1  2  2  0  0  0
  1  6  1  0  0  0
  1  7  1  0  0  0
  2  3  1  0  0  0
  2  9  1  0  0  0
  3  4  2  0  0  0
  3 12  1  0  0  0
  4  5  1  0  0  0
  4 13  1  0  0  0
  5  6  2  0  0  0
  5 14  1  0  0  0
  6 15  1  0  0  0
  7  8  1  0  0  0
  7 11  2  0  0  0
  8  9  1  0  0  0
  8 10  2  0  0  0
  9 16  1  0  0  0
 11 17  1  0  0  0
 11 18  1  0  0  0
M  END
> <s_m_entry_name>
Schrodinger_fragment_325

> <i_m_number_of_atoms>
18

> <r_m_molecular_weight>
145.16224

> <s_m_molecular_formula>
C9H7N1O1

> <r_epik_Ionization_Penalty>
  0.0000

> <r_epik_Ionization_Penalty_Charging>
  0.0000

> <r_epik_Ionization_Penalty_Neutral>
  0.0000

> <r_epik_State_Penalty>
  0.0000

> <i_epik_Tot_Q>
0

> <r_epik_Metal_State_Penalty>
  0.0000

> <b_epik_Metal_Only>
0

> <s_m_entry_id>
4716

> <s_canvas_Unique_SMILES_Stereo>
C=C1C(=O)Nc(c12)cccc2

$$$$
Schrodinger_fragment_265
                    3D
 Structure written by MMmdl.
 18 19  0  0  1  0            999 V2000
    2.1787    3.2063    0.0237 C   0  0  0  0  0  0
    2.1939    1.8210    0.0239 C   0  0  0  0  0  0
    3.3926    1.0867    0.0272 C   0  0  0  0  0  0
    4.6043    1.8162    0.0304 C   0  0  0  0  0  0
    4.5934    3.2343    0.0302 C   0  0  0  0  0  0
    3.3724    3.9489    0.0268 C   0  0  0  0  0  0
    0.7737    3.6123    0.0199 C   0  0  0  0  0  0
    0.0350    2.4206    0.0180 N   0  0  0  0  0  0
    0.7988    1.3185    0.0202 C   0  0  0  0  0  0
    0.4449    0.1369    0.0194 O   0  0  0  0  0  0
    0.2541    4.8499    0.0183 C   0  0  0  0  0  0
    3.3843    0.0054    0.0273 H   0  0  0  0  0  0
    5.5479    1.2875    0.0330 H   0  0  0  0  0  0
    5.5292    3.7764    0.0326 H   0  0  0  0  0  0
    3.3582    5.0299    0.0266 H   0  0  0  0  0  0
   -0.9747    2.4074    0.0153 H   0  0  0  0  0  0
   -0.8139    5.0160    0.0154 H   0  0  0  0  0  0
    0.8914    5.7229    0.0199 H   0  0  0  0  0  0
  1  2  1  0  0  0
  1  6  2  0  0  0
  1  7  1  0  0  0
  2  3  2  0  0  0
  2  9  1  0  0  0
  3  4  1  0  0  0
  3 12  1  0  0  0
  4  5  2  0  0  0
  4 13  1  0  0  0
  5  6  1  0  0  0
  5 14  1  0  0  0
  6 15  1  0  0  0
  7  8  1  0  0  0
  7 11  2  0  0  0
  8  9  1  0  0  0
  8 16  1  0  0  0
  9 10  2  0  0  0
 11 17  1  0  0  0
 11 18  1  0  0  0
M  END
> <s_m_entry_name>
Schrodinger_fragment_326

> <i_m_number_of_atoms>
18

> <r_m_molecular_weight>
145.16224

> <s_m_molecular_formula>
C9H7N1O1

> <r_epik_Ionization_Penalty>
  0.0001

> <r_epik_Ionization_Penalty_Charging>
  0.0000

> <r_epik_Ionization_Penalty_Neutral>
  0.0001

> <r_epik_State_Penalty>
  0.0000

> <i_epik_Tot_Q>
0

> <r_epik_Metal_State_Penalty>
  0.0913

> <b_epik_Metal_Only>
0

> <s_m_entry_id>
4717

> <s_canvas_Unique_SMILES_Stereo>
C=C1NC(=O)c(c12)cccc2

$$$$
Schrodinger_fragment_265_a
                    3D
 Structure written by MMmdl.
 17 18  0  0  1  0            999 V2000
    2.1799    3.1925    0.0237 C   0  0  0  0  0  0
    2.1858    1.8080    0.0239 C   0  0  0  0  0  0
    3.3941    1.0826    0.0272 C   0  0  0  0  0  0
    4.6056    1.8132    0.0304 C   0  0  0  0  0  0
    4.5935    3.2308    0.0302 C   0  0  0  0  0  0
    3.3706    3.9412    0.0268 C   0  0  0  0  0  0
    0.7732    3.5733    0.0199 C   0  0  0  0  0  0
   -0.0121    2.4169    0.0179 N   0  0  0  0  0  0
    0.7675    1.4160    0.0201 C   0  0  0  0  0  0
    0.5784    0.1954    0.0198 O   0  5  0  0  0  0
    0.2640    4.8137    0.0183 C   0  0  0  0  0  0
    3.3888    0.0020    0.0273 H   0  0  0  0  0  0
    5.5493    1.2848    0.0330 H   0  0  0  0  0  0
    5.5282    3.7748    0.0326 H   0  0  0  0  0  0
    3.3509    5.0218    0.0266 H   0  0  0  0  0  0
   -0.8023    4.9930    0.0154 H   0  0  0  0  0  0
    0.9089    5.6820    0.0200 H   0  0  0  0  0  0
  1  2  1  0  0  0
  1  6  2  0  0  0
  1  7  1  0  0  0
  2  3  2  0  0  0
  2  9  1  0  0  0
  3  4  1  0  0  0
  3 12  1  0  0  0
  4  5  2  0  0  0
  4 13  1  0  0  0
  5  6  1  0  0  0
  5 14  1  0  0  0
  6 15  1  0  0  0
  7  8  1  0  0  0
  7 11  2  0  0  0
  8  9  2  0  0  0
  9 10  1  0  0  0
 11 16  1  0  0  0
 11 17  1  0  0  0
M  CHG  1  10  -1
M  END
> <s_m_entry_name>
Schrodinger_fragment_326

> <i_m_number_of_atoms>
18

> <r_m_molecular_weight>
145.16224

> <s_m_molecular_formula>
C9H7N1O1

> <r_epik_Ionization_Penalty>
  5.1544

> <r_epik_Ionization_Penalty_Charging>
  5.1544

> <r_epik_Ionization_Penalty_Neutral>
  0.0000

> <r_epik_State_Penalty>
  5.1543

> <i_epik_Tot_Q>
-1

> <r_epik_Metal_State_Penalty>
  1.1529

> <b_epik_Metal_Only>
1

> <s_m_entry_id>
4718

> <s_canvas_Unique_SMILES_Stereo>
C=C1N=C([O-])c(c12)cccc2

$$$$
Schrodinger_fragment_266
                    3D
 Structure written by MMmdl.
 17 18  0  0  1  0            999 V2000
    3.6148    2.1438    0.0214 C   0  0  0  0  0  0
    3.5928    0.7556    0.0236 C   0  0  0  0  0  0
    4.7715   -0.0083    0.0282 C   0  0  0  0  0  0
    6.0012    0.6889    0.0305 C   0  0  0  0  0  0
    6.0296    2.1063    0.0282 C   0  0  0  0  0  0
    4.8288    2.8528    0.0236 C   0  0  0  0  0  0
    2.2067    2.6896    0.0165 C   0  0  0  0  0  0
    1.4271    1.3628    0.0165 C   0  0  0  0  0  0
    2.2666    0.3199    0.0206 N   0  0  0  0  0  0
    0.1964    1.2901    0.0132 O   0  0  0  0  0  0
    4.7443   -1.0893    0.0300 H   0  0  0  0  0  0
    6.9296    0.1346    0.0341 H   0  0  0  0  0  0
    6.9802    2.6224    0.0300 H   0  0  0  0  0  0
    4.8454    3.9342    0.0218 H   0  0  0  0  0  0
    1.9964    3.2777    0.9097 H   0  0  0  0  0  0
    2.0015    3.2746   -0.8799 H   0  0  0  0  0  0
    1.9962   -0.6541    0.0215 H   0  0  0  0  0  0
  1  2  2  0  0  0
  1  6  1  0  0  0
  1  7  1  0  0  0
  2  3  1  0  0  0
  2  9  1  0  0  0
  3  4  2  0  0  0
  3 11  1  0  0  0
  4  5  1  0  0  0
  4 12  1  0  0  0
  5  6  2  0  0  0
  5 13  1  0  0  0
  6 14  1  0  0  0
  7  8  1  0  0  0
  7 15  1  0  0  0
  7 16  1  0  0  0
  8  9  1  0  0  0
  8 10  2  0  0  0
  9 17  1  0  0  0
M  END
> <s_m_entry_name>
Schrodinger_fragment_327

> <i_m_number_of_atoms>
17

> <r_m_molecular_weight>
133.15109

> <s_m_molecular_formula>
C8H7N1O1

> <r_epik_Ionization_Penalty>
  0.0000

> <r_epik_Ionization_Penalty_Charging>
  0.0000

> <r_epik_Ionization_Penalty_Neutral>
  0.0000

> <r_epik_State_Penalty>
  0.0000

> <i_epik_Tot_Q>
0

> <r_epik_Metal_State_Penalty>
  0.0000

> <b_epik_Metal_Only>
0

> <s_m_entry_id>
4719

> <s_canvas_Unique_SMILES_Stereo>
C1C(=O)Nc(c12)cccc2

$$$$
Schrodinger_fragment_267
                    3D
 Structure written by MMmdl.
 20 21  0  0  1  0            999 V2000
    2.7662   -1.9583    0.0736 C   0  0  0  0  0  0
    2.7816   -3.3375   -0.0199 C   0  0  0  0  0  0
    3.9849   -4.0616   -0.0696 C   0  0  0  0  0  0
    5.1925   -3.3269   -0.0205 C   0  0  0  0  0  0
    5.1774   -1.9119    0.0755 C   0  0  0  0  0  0
    3.9527   -1.2057    0.1240 C   0  0  0  0  0  0
    1.3632   -1.4768    0.1071 C   0  0  0  0  0  0
    0.5856   -2.5776    0.0329 N   0  0  0  0  0  0
    1.3572   -3.8316   -0.0526 C   0  0  0  0  0  0
    1.0112   -0.2961    0.1873 O   0  0  0  0  0  0
   -0.8714   -2.5885    0.0329 C   0  0  0  0  0  0
    3.9890   -5.1408   -0.1428 H   0  0  0  0  0  0
    6.1384   -3.8503   -0.0565 H   0  0  0  0  0  0
    6.1113   -1.3675    0.1118 H   0  0  0  0  0  0
    3.9264   -0.1270    0.1972 H   0  0  0  0  0  0
    1.1477   -4.3638   -0.9812 H   0  0  0  0  0  0
    1.1487   -4.4843    0.7960 H   0  0  0  0  0  0
   -1.2580   -3.6056   -0.0358 H   0  0  0  0  0  0
   -1.2570   -2.0203   -0.8142 H   0  0  0  0  0  0
   -1.2560   -2.1399    0.9495 H   0  0  0  0  0  0
  1  2  2  0  0  0
  1  6  1  0  0  0
  1  7  1  0  0  0
  2  3  1  0  0  0
  2  9  1  0  0  0
  3  4  2  0  0  0
  3 12  1  0  0  0
  4  5  1  0  0  0
  4 13  1  0  0  0
  5  6  2  0  0  0
  5 14  1  0  0  0
  6 15  1  0  0  0
  7  8  1  0  0  0
  7 10  2  0  0  0
  8  9  1  0  0  0
  8 11  1  0  0  0
  9 16  1  0  0  0
  9 17  1  0  0  0
 11 18  1  0  0  0
 11 19  1  0  0  0
 11 20  1  0  0  0
M  END
> <s_m_entry_name>
Schrodinger_fragment_328

> <i_m_number_of_atoms>
20

> <r_m_molecular_weight>
147.17818

> <s_m_molecular_formula>
C9H9N1O1

> <r_epik_Ionization_Penalty>
  0.0000

> <r_epik_Ionization_Penalty_Charging>
  0.0000

> <r_epik_Ionization_Penalty_Neutral>
  0.0000

> <r_epik_State_Penalty>
  0.0000

> <i_epik_Tot_Q>
0

> <r_epik_Metal_State_Penalty>
  0.0000

> <b_epik_Metal_Only>
0

> <s_m_entry_id>
4720

> <s_canvas_Unique_SMILES_Stereo>
O=C1N(C)Cc(c12)cccc2

$$$$
Schrodinger_fragment_268
                    3D
 Structure written by MMmdl.
 21 22  0  0  1  0            999 V2000
    3.7708   -1.6555    0.0229 C   0  0  0  0  0  0
    3.7592   -3.0407    0.0261 C   0  0  0  0  0  0
    4.9488   -3.7922    0.0282 C   0  0  0  0  0  0
    6.1717   -3.0832    0.0270 C   0  0  0  0  0  0
    6.1856   -1.6659    0.0237 C   0  0  0  0  0  0
    4.9768   -0.9325    0.0216 C   0  0  0  0  0  0
    2.3844   -1.2205    0.0214 C   0  0  0  0  0  0
    1.5696   -2.4343    0.0239 C   0  0  0  0  0  0
    2.4243   -3.4840    0.0266 N   0  0  0  0  0  0
    0.3352   -2.5091    0.0237 O   0  0  0  0  0  0
    1.8889    0.0293    0.0184 C   0  0  0  0  0  0
    2.0561   -4.8965    0.0297 C   0  0  0  0  0  0
    4.9336   -4.8733    0.0307 H   0  0  0  0  0  0
    7.1059   -3.6281    0.0285 H   0  0  0  0  0  0
    7.1303   -1.1396    0.0228 H   0  0  0  0  0  0
    4.9815    0.1485    0.0191 H   0  0  0  0  0  0
    0.8230    0.2097    0.0176 H   0  0  0  0  0  0
    2.5409    0.8902    0.0166 H   0  0  0  0  0  0
    0.9750   -5.0404    0.0297 H   0  0  0  0  0  0
    2.4590   -5.3887    0.9149 H   0  0  0  0  0  0
    2.4596   -5.3928   -0.8528 H   0  0  0  0  0  0
  1  2  2  0  0  0
  1  6  1  0  0  0
  1  7  1  0  0  0
  2  3  1  0  0  0
  2  9  1  0  0  0
  3  4  2  0  0  0
  3 13  1  0  0  0
  4  5  1  0  0  0
  4 14  1  0  0  0
  5  6  2  0  0  0
  5 15  1  0  0  0
  6 16  1  0  0  0
  7  8  1  0  0  0
  7 11  2  0  0  0
  8  9  1  0  0  0
  8 10  2  0  0  0
  9 12  1  0  0  0
 11 17  1  0  0  0
 11 18  1  0  0  0
 12 19  1  0  0  0
 12 20  1  0  0  0
 12 21  1  0  0  0
M  END
> <s_m_entry_name>
Schrodinger_fragment_329

> <i_m_number_of_atoms>
21

> <r_m_molecular_weight>
159.18933

> <s_m_molecular_formula>
C10H9N1O1

> <r_epik_Ionization_Penalty>
  0.0000

> <r_epik_Ionization_Penalty_Charging>
  0.0000

> <r_epik_Ionization_Penalty_Neutral>
  0.0000

> <r_epik_State_Penalty>
  0.0000

> <i_epik_Tot_Q>
0

> <r_epik_Metal_State_Penalty>
  0.0000

> <b_epik_Metal_Only>
0

> <s_m_entry_id>
4721

> <s_canvas_Unique_SMILES_Stereo>
C=C1C(=O)N(C)c(c12)cccc2

$$$$
Schrodinger_fragment_269
                    3D
 Structure written by MMmdl.
 21 22  0  0  1  0            999 V2000
    2.7267   -1.6888    0.0470 C   0  0  0  0  0  0
    2.7487   -3.0708   -0.0201 C   0  0  0  0  0  0
    3.9511   -3.7990   -0.0538 C   0  0  0  0  0  0
    5.1596   -3.0656   -0.0166 C   0  0  0  0  0  0
    5.1420   -1.6494    0.0522 C   0  0  0  0  0  0
    3.9176   -0.9417    0.0849 C   0  0  0  0  0  0
    1.3214   -1.2855    0.0647 C   0  0  0  0  0  0
    0.5733   -2.4815    0.0056 N   0  0  0  0  0  0
    1.3573   -3.5815   -0.0468 C   0  0  0  0  0  0
    1.0281   -4.7721   -0.1050 O   0  0  0  0  0  0
    0.8255   -0.0363    0.1248 C   0  0  0  0  0  0
   -0.8878   -2.4932    0.0031 C   0  0  0  0  0  0
    3.9481   -4.8791   -0.1063 H   0  0  0  0  0  0
    6.1056   -3.5895   -0.0408 H   0  0  0  0  0  0
    6.0751   -1.1035    0.0800 H   0  0  0  0  0  0
    3.9000    0.1380    0.1373 H   0  0  0  0  0  0
   -0.2376    0.1580    0.1328 H   0  0  0  0  0  0
    1.4814    0.8217    0.1673 H   0  0  0  0  0  0
   -1.2895   -3.5060   -0.0466 H   0  0  0  0  0  0
   -1.2692   -1.9418   -0.8562 H   0  0  0  0  0  0
   -1.2716   -2.0276    0.9108 H   0  0  0  0  0  0
  1  2  1  0  0  0
  1  6  2  0  0  0
  1  7  1  0  0  0
  2  3  2  0  0  0
  2  9  1  0  0  0
  3  4  1  0  0  0
  3 13  1  0  0  0
  4  5  2  0  0  0
  4 14  1  0  0  0
  5  6  1  0  0  0
  5 15  1  0  0  0
  6 16  1  0  0  0
  7  8  1  0  0  0
  7 11  2  0  0  0
  8  9  1  0  0  0
  8 12  1  0  0  0
  9 10  2  0  0  0
 11 17  1  0  0  0
 11 18  1  0  0  0
 12 19  1  0  0  0
 12 20  1  0  0  0
 12 21  1  0  0  0
M  END
> <s_m_entry_name>
Schrodinger_fragment_330

> <i_m_number_of_atoms>
21

> <r_m_molecular_weight>
159.18933

> <s_m_molecular_formula>
C10H9N1O1

> <r_epik_Ionization_Penalty>
  0.0000

> <r_epik_Ionization_Penalty_Charging>
  0.0000

> <r_epik_Ionization_Penalty_Neutral>
  0.0000

> <r_epik_State_Penalty>
  0.0000

> <i_epik_Tot_Q>
0

> <r_epik_Metal_State_Penalty>
  0.0000

> <b_epik_Metal_Only>
0

> <s_m_entry_id>
4722

> <s_canvas_Unique_SMILES_Stereo>
C=C1N(C)C(=O)c(c12)cccc2

$$$$
Schrodinger_fragment_270
                    3D
 Structure written by MMmdl.
 20 21  0  0  1  0            999 V2000
    3.8103   -0.6845    0.0208 C   0  0  0  0  0  0
    3.7795   -2.0727    0.0263 C   0  0  0  0  0  0
    4.9606   -2.8374    0.0321 C   0  0  0  0  0  0
    6.1925   -2.1447    0.0321 C   0  0  0  0  0  0
    6.2251   -0.7281    0.0266 C   0  0  0  0  0  0
    5.0265    0.0208    0.0208 C   0  0  0  0  0  0
    2.4080   -0.1300    0.0153 C   0  0  0  0  0  0
    1.6139   -1.4471    0.0188 C   0  0  0  0  0  0
    2.4453   -2.5095    0.0249 N   0  0  0  0  0  0
    0.3782   -1.4870    0.0161 O   0  0  0  0  0  0
    2.0598   -3.9168    0.0297 C   0  0  0  0  0  0
    4.9326   -3.9183    0.0363 H   0  0  0  0  0  0
    7.1194   -2.7018    0.0365 H   0  0  0  0  0  0
    7.1770   -0.2146    0.0267 H   0  0  0  0  0  0
    5.0467    1.1023    0.0165 H   0  0  0  0  0  0
    2.2027    0.4615    0.9072 H   0  0  0  0  0  0
    2.2068    0.4543   -0.8822 H   0  0  0  0  0  0
    0.9768   -4.0457    0.0277 H   0  0  0  0  0  0
    2.4546   -4.4127    0.9165 H   0  0  0  0  0  0
    2.4587   -4.4198   -0.8513 H   0  0  0  0  0  0
  1  2  2  0  0  0
  1  6  1  0  0  0
  1  7  1  0  0  0
  2  3  1  0  0  0
  2  9  1  0  0  0
  3  4  2  0  0  0
  3 12  1  0  0  0
  4  5  1  0  0  0
  4 13  1  0  0  0
  5  6  2  0  0  0
  5 14  1  0  0  0
  6 15  1  0  0  0
  7  8  1  0  0  0
  7 16  1  0  0  0
  7 17  1  0  0  0
  8  9  1  0  0  0
  8 10  2  0  0  0
  9 11  1  0  0  0
 11 18  1  0  0  0
 11 19  1  0  0  0
 11 20  1  0  0  0
M  END
> <s_m_entry_name>
Schrodinger_fragment_331

> <i_m_number_of_atoms>
20

> <r_m_molecular_weight>
147.17818

> <s_m_molecular_formula>
C9H9N1O1

> <r_epik_Ionization_Penalty>
  0.0000

> <r_epik_Ionization_Penalty_Charging>
  0.0000

> <r_epik_Ionization_Penalty_Neutral>
  0.0000

> <r_epik_State_Penalty>
  0.0000

> <i_epik_Tot_Q>
0

> <r_epik_Metal_State_Penalty>
  0.0000

> <b_epik_Metal_Only>
0

> <s_m_entry_id>
4723

> <s_canvas_Unique_SMILES_Stereo>
C1C(=O)N(C)c(c12)cccc2

$$$$
Schrodinger_fragment_271
                    3D
 Structure written by MMmdl.
 16 17  0  0  1  0            999 V2000
    3.5847    2.1189    0.0228 C   0  0  0  0  0  0
    3.5821    0.7400    0.0223 C   0  0  0  0  0  0
    4.7679   -0.0108    0.0257 C   0  0  0  0  0  0
    5.9838    0.7144    0.0296 C   0  0  0  0  0  0
    5.9865    2.1353    0.0301 C   0  0  0  0  0  0
    4.7734    2.8651    0.0266 C   0  0  0  0  0  0
    2.2453    2.5161    0.0189 N   0  0  0  0  0  0
    1.4511    1.4335    0.0161 C   0  0  0  0  0  0
    2.2411    0.3479    0.0181 N   0  0  0  0  0  0
    0.2199    1.4359    0.0124 O   0  0  0  0  0  0
    4.7570   -1.0917    0.0253 H   0  0  0  0  0  0
    6.9232    0.1787    0.0322 H   0  0  0  0  0  0
    6.9279    2.6675    0.0331 H   0  0  0  0  0  0
    4.7666    3.9461    0.0270 H   0  0  0  0  0  0
    1.9379    3.4784    0.0182 H   0  0  0  0  0  0
    1.9302   -0.6132    0.0169 H   0  0  0  0  0  0
  1  2  2  0  0  0
  1  6  1  0  0  0
  1  7  1  0  0  0
  2  3  1  0  0  0
  2  9  1  0  0  0
  3  4  2  0  0  0
  3 11  1  0  0  0
  4  5  1  0  0  0
  4 12  1  0  0  0
  5  6  2  0  0  0
  5 13  1  0  0  0
  6 14  1  0  0  0
  7  8  1  0  0  0
  7 15  1  0  0  0
  8  9  1  0  0  0
  8 10  2  0  0  0
  9 16  1  0  0  0
M  END
> <s_m_entry_name>
Schrodinger_fragment_332

> <i_m_number_of_atoms>
16

> <r_m_molecular_weight>
134.13867

> <s_m_molecular_formula>
C7H6N2O1

> <r_epik_Ionization_Penalty>
  0.0000

> <r_epik_Ionization_Penalty_Charging>
  0.0000

> <r_epik_Ionization_Penalty_Neutral>
  0.0000

> <r_epik_State_Penalty>
  0.0000

> <i_epik_Tot_Q>
0

> <r_epik_Metal_State_Penalty>
  0.0063

> <b_epik_Metal_Only>
0

> <s_m_entry_id>
4724

> <s_canvas_Unique_SMILES_Stereo>
[nH]1c(=O)[nH]c(c12)cccc2

$$$$
Schrodinger_fragment_271_a
                    3D
 Structure written by MMmdl.
 15 16  0  0  1  0            999 V2000
    3.5320    2.1230    0.0226 C   0  0  0  0  0  0
    3.5764    0.6956    0.0223 C   0  0  0  0  0  0
    4.7919   -0.0096    0.0257 C   0  0  0  0  0  0
    6.0016    0.7156    0.0296 C   0  0  0  0  0  0
    5.9822    2.1274    0.0300 C   0  0  0  0  0  0
    4.7541    2.8268    0.0266 C   0  0  0  0  0  0
    2.2153    2.5786    0.0188 N   0  0  0  0  0  0
    1.5280    1.4510    0.0163 C   0  0  0  0  0  0
    2.2399    0.3265    0.0181 N   0  0  0  0  0  0
    0.2045    1.3710    0.0123 O   0  5  0  0  0  0
    4.8027   -1.0919    0.0254 H   0  0  0  0  0  0
    6.9490    0.1885    0.0323 H   0  0  0  0  0  0
    6.9150    2.6783    0.0330 H   0  0  0  0  0  0
    4.7472    3.9082    0.0269 H   0  0  0  0  0  0
    1.8525   -0.6172    0.0166 H   0  0  0  0  0  0
  1  2  2  0  0  0
  1  6  1  0  0  0
  1  7  1  0  0  0
  2  3  1  0  0  0
  2  9  1  0  0  0
  3  4  2  0  0  0
  3 11  1  0  0  0
  4  5  1  0  0  0
  4 12  1  0  0  0
  5  6  2  0  0  0
  5 13  1  0  0  0
  6 14  1  0  0  0
  7  8  2  0  0  0
  8  9  1  0  0  0
  8 10  1  0  0  0
  9 15  1  0  0  0
M  CHG  1  10  -1
M  END
> <s_m_entry_name>
Schrodinger_fragment_332

> <i_m_number_of_atoms>
16

> <r_m_molecular_weight>
134.13867

> <s_m_molecular_formula>
C7H6N2O1

> <r_epik_Ionization_Penalty>
  7.8821

> <r_epik_Ionization_Penalty_Charging>
  1.1031

> <r_epik_Ionization_Penalty_Neutral>
  6.7789

> <r_epik_State_Penalty>
  6.7789

> <i_epik_Tot_Q>
-1

> <r_epik_Metal_State_Penalty>
  2.6925

> <b_epik_Metal_Only>
1

> <s_m_entry_id>
4725

> <s_canvas_Unique_SMILES_Stereo>
n1c([O-])[nH]c(c12)cccc2

$$$$
Schrodinger_fragment_272
                    3D
 Structure written by MMmdl.
 19 20  0  0  1  0            999 V2000
    3.7606   -1.0063    0.0240 C   0  0  0  0  0  0
    3.7713   -2.3852    0.0234 C   0  0  0  0  0  0
    4.9627   -3.1275    0.0250 C   0  0  0  0  0  0
    6.1734   -2.3945    0.0274 C   0  0  0  0  0  0
    6.1660   -0.9742    0.0281 C   0  0  0  0  0  0
    4.9472   -0.2541    0.0264 C   0  0  0  0  0  0
    2.4149   -0.6108    0.0220 N   0  0  0  0  0  0
    1.6329   -1.7163    0.0202 C   0  0  0  0  0  0
    2.4369   -2.7907    0.0210 N   0  0  0  0  0  0
    0.3993   -1.7452    0.0181 O   0  0  0  0  0  0
    1.9790    0.7820    0.0217 C   0  0  0  0  0  0
    4.9596   -4.2085    0.0245 H   0  0  0  0  0  0
    7.1165   -2.9237    0.0287 H   0  0  0  0  0  0
    7.1034   -0.4350    0.0299 H   0  0  0  0  0  0
    4.9326    0.8266    0.0269 H   0  0  0  0  0  0
    2.1349   -3.7536    0.0201 H   0  0  0  0  0  0
    0.8913    0.8677    0.0202 H   0  0  0  0  0  0
    2.3576    1.2967   -0.8618 H   0  0  0  0  0  0
    2.3552    1.2964    0.9063 H   0  0  0  0  0  0
  1  2  2  0  0  0
  1  6  1  0  0  0
  1  7  1  0  0  0
  2  3  1  0  0  0
  2  9  1  0  0  0
  3  4  2  0  0  0
  3 12  1  0  0  0
  4  5  1  0  0  0
  4 13  1  0  0  0
  5  6  2  0  0  0
  5 14  1  0  0  0
  6 15  1  0  0  0
  7  8  1  0  0  0
  7 11  1  0  0  0
  8  9  1  0  0  0
  8 10  2  0  0  0
  9 16  1  0  0  0
 11 17  1  0  0  0
 11 18  1  0  0  0
 11 19  1  0  0  0
M  END
> <s_m_entry_name>
Schrodinger_fragment_333

> <i_m_number_of_atoms>
19

> <r_m_molecular_weight>
148.16576

> <s_m_molecular_formula>
C8H8N2O1

> <r_epik_Ionization_Penalty>
  0.0000

> <r_epik_Ionization_Penalty_Charging>
  0.0000

> <r_epik_Ionization_Penalty_Neutral>
  0.0000

> <r_epik_State_Penalty>
  0.0000

> <i_epik_Tot_Q>
0

> <r_epik_Metal_State_Penalty>
  0.0000

> <b_epik_Metal_Only>
0

> <s_m_entry_id>
4726

> <s_canvas_Unique_SMILES_Stereo>
Cn1c(=O)[nH]c(c12)cccc2

$$$$
Schrodinger_fragment_273
                    3D
 Structure written by MMmdl.
 22 23  0  0  1  0            999 V2000
    3.7554   -1.8758    0.0084 C   0  0  0  0  0  0
    3.7657   -3.2548    0.0245 C   0  0  0  0  0  0
    4.9618   -3.9920   -0.0022 C   0  0  0  0  0  0
    6.1708   -3.2581   -0.0469 C   0  0  0  0  0  0
    6.1602   -1.8384   -0.0635 C   0  0  0  0  0  0
    4.9404   -1.1216   -0.0358 C   0  0  0  0  0  0
    2.4132   -1.4779    0.0435 N   0  0  0  0  0  0
    1.6279   -2.5804    0.0800 C   0  0  0  0  0  0
    2.4296   -3.6717    0.0692 N   0  0  0  0  0  0
    0.3918   -2.5892    0.1168 O   0  0  0  0  0  0
    1.9816   -0.0832    0.0396 C   0  0  0  0  0  0
    2.0187   -5.0724    0.0981 C   0  0  0  0  0  0
    4.9613   -5.0728    0.0107 H   0  0  0  0  0  0
    7.1145   -3.7859   -0.0686 H   0  0  0  0  0  0
    7.0959   -1.2973   -0.0978 H   0  0  0  0  0  0
    4.9238   -0.0410   -0.0483 H   0  0  0  0  0  0
    0.8947    0.0072    0.0708 H   0  0  0  0  0  0
    2.3341    0.4196   -0.8613 H   0  0  0  0  0  0
    2.3866    0.4408    0.9058 H   0  0  0  0  0  0
    0.9333   -5.1782    0.1317 H   0  0  0  0  0  0
    2.4314   -5.5698    0.9763 H   0  0  0  0  0  0
    2.3789   -5.5909   -0.7908 H   0  0  0  0  0  0
  1  2  2  0  0  0
  1  6  1  0  0  0
  1  7  1  0  0  0
  2  3  1  0  0  0
  2  9  1  0  0  0
  3  4  2  0  0  0
  3 13  1  0  0  0
  4  5  1  0  0  0
  4 14  1  0  0  0
  5  6  2  0  0  0
  5 15  1  0  0  0
  6 16  1  0  0  0
  7  8  1  0  0  0
  7 11  1  0  0  0
  8  9  1  0  0  0
  8 10  2  0  0  0
  9 12  1  0  0  0
 11 17  1  0  0  0
 11 18  1  0  0  0
 11 19  1  0  0  0
 12 20  1  0  0  0
 12 21  1  0  0  0
 12 22  1  0  0  0
M  END
> <s_m_entry_name>
Schrodinger_fragment_334

> <i_m_number_of_atoms>
22

> <r_m_molecular_weight>
162.19285

> <s_m_molecular_formula>
C9H10N2O1

> <r_epik_Ionization_Penalty>
  0.0000

> <r_epik_Ionization_Penalty_Charging>
  0.0000

> <r_epik_Ionization_Penalty_Neutral>
  0.0000

> <r_epik_State_Penalty>
  0.0000

> <i_epik_Tot_Q>
0

> <r_epik_Metal_State_Penalty>
  0.0000

> <b_epik_Metal_Only>
0

> <s_m_entry_id>
4727

> <s_canvas_Unique_SMILES_Stereo>
Cn1c(=O)n(C)c(c12)cccc2

$$$$
Schrodinger_fragment_274
                    3D
 Structure written by MMmdl.
 23 24  0  0  1  0            999 V2000
    4.9957   -3.4299    0.3451 C   0  0  1  0  0  0
    5.0257   -4.8751    0.1230 N   0  0  0  0  0  0
    6.1458   -5.6037   -0.0757 C   0  0  0  0  0  0
    7.4950   -4.8668   -0.1503 C   0  0  0  0  0  0
    6.2463   -2.7189   -0.2046 C   0  0  0  0  0  0
    3.6535   -2.9799   -0.2345 C   0  0  0  0  0  0
    2.7402   -4.1717    0.0490 C   0  0  0  0  0  0
    3.6653   -5.3961   -0.0094 C   0  0  0  0  0  0
    6.1167   -6.8271   -0.2388 O   0  0  0  0  0  0
    4.9653   -3.2863    1.4273 H   0  0  0  0  0  0
    8.2329   -5.3921    0.4562 H   0  0  0  0  0  0
    7.8399   -4.9202   -1.1830 H   0  0  0  0  0  0
    6.2358   -2.6974   -1.2954 H   0  0  0  0  0  0
    6.2807   -1.6829    0.1343 H   0  0  0  0  0  0
    3.2888   -2.0524    0.2093 H   0  0  0  0  0  0
    3.7353   -2.8262   -1.3119 H   0  0  0  0  0  0
    2.3181   -4.0799    1.0512 H   0  0  0  0  0  0
    1.9074   -4.2394   -0.6524 H   0  0  0  0  0  0
    3.5613   -5.9063   -0.9689 H   0  0  0  0  0  0
    3.4357   -6.1150    0.7788 H   0  0  0  0  0  0
    7.4477   -3.4407    0.2569 N   0  3  0  0  0  0
    7.4677   -3.3946    1.2619 H   0  0  0  0  0  0
    8.2715   -2.9698   -0.0774 H   0  0  0  0  0  0
  1  2  1  0  0  0
  1  5  1  0  0  0
  1  6  1  0  0  0
  1 10  1  0  0  0
  2  3  1  0  0  0
  2  8  1  0  0  0
  3  4  1  0  0  0
  3  9  2  0  0  0
  4 11  1  0  0  0
  4 12  1  0  0  0
  4 21  1  0  0  0
  5 13  1  0  0  0
  5 14  1  0  0  0
  5 21  1  0  0  0
  6  7  1  0  0  0
  6 15  1  0  0  0
  6 16  1  0  0  0
  7  8  1  0  0  0
  7 17  1  0  0  0
  7 18  1  0  0  0
  8 19  1  0  0  0
  8 20  1  0  0  0
 21 22  1  0  0  0
 21 23  1  0  0  0
M  CHG  1  21   1
M  END
> <s_m_entry_name>
Schrodinger_fragment_335

> <i_m_number_of_atoms>
23

> <r_m_molecular_weight>
141.19446

> <s_m_molecular_formula>
C7H13N2O1

> <r_epik_Ionization_Penalty>
  0.0525

> <r_epik_Ionization_Penalty_Charging>
  0.0525

> <r_epik_Ionization_Penalty_Neutral>
  0.0000

> <r_epik_State_Penalty>
  0.0262

> <i_epik_Tot_Q>
1

> <r_epik_Metal_State_Penalty>
  0.0262

> <b_epik_Metal_Only>
0

> <s_m_entry_id>
4728

> <s_canvas_Unique_SMILES_Stereo>
C1CCN([C@H]12)C(=O)C[NH2+]C2

$$$$
Schrodinger_fragment_274_a
                    3D
 Structure written by MMmdl.
 22 23  0  0  1  0            999 V2000
    5.0120   -3.4502    0.3534 C   0  0  1  0  0  0
    5.0156   -4.8882    0.1021 N   0  0  0  0  0  0
    6.1389   -5.6108   -0.0780 C   0  0  0  0  0  0
    7.4830   -4.8484   -0.1034 C   0  0  0  0  0  0
    6.2479   -2.7577   -0.2509 C   0  0  0  0  0  0
    3.6647   -2.9761   -0.1918 C   0  0  0  0  0  0
    2.7425   -4.1666    0.0674 C   0  0  0  0  0  0
    3.6542   -5.3954   -0.0494 C   0  0  0  0  0  0
    6.1271   -6.8301   -0.2619 O   0  0  0  0  0  0
    5.0138   -3.3139    1.4371 H   0  0  0  0  0  0
    8.2000   -5.3695    0.5325 H   0  0  0  0  0  0
    7.8673   -4.9227   -1.1217 H   0  0  0  0  0  0
    6.2402   -2.8083   -1.3420 H   0  0  0  0  0  0
    6.2587   -1.7002    0.0190 H   0  0  0  0  0  0
    3.3157   -2.0582    0.2830 H   0  0  0  0  0  0
    3.7344   -2.7915   -1.2651 H   0  0  0  0  0  0
    2.3405   -4.1045    1.0800 H   0  0  0  0  0  0
    1.8970   -4.2022   -0.6208 H   0  0  0  0  0  0
    3.5488   -5.8601   -1.0314 H   0  0  0  0  0  0
    3.4223   -6.1476    0.7062 H   0  0  0  0  0  0
    7.4395   -3.4146    0.2820 N   0  0  0  0  0  0
    7.3990   -3.3317    1.2956 H   0  0  0  0  0  0
  1  2  1  0  0  0
  1  5  1  0  0  0
  1  6  1  0  0  0
  1 10  1  0  0  0
  2  3  1  0  0  0
  2  8  1  0  0  0
  3  4  1  0  0  0
  3  9  2  0  0  0
  4 11  1  0  0  0
  4 12  1  0  0  0
  4 21  1  0  0  0
  5 13  1  0  0  0
  5 14  1  0  0  0
  5 21  1  0  0  0
  6  7  1  0  0  0
  6 15  1  0  0  0
  6 16  1  0  0  0
  7  8  1  0  0  0
  7 17  1  0  0  0
  7 18  1  0  0  0
  8 19  1  0  0  0
  8 20  1  0  0  0
 21 22  1  0  0  0
M  END
> <s_m_entry_name>
Schrodinger_fragment_335

> <i_m_number_of_atoms>
23

> <r_m_molecular_weight>
141.19446

> <s_m_molecular_formula>
C7H13N2O1

> <r_epik_Ionization_Penalty>
  1.8601

> <r_epik_Ionization_Penalty_Charging>
  0.0000

> <r_epik_Ionization_Penalty_Neutral>
  1.8601

> <r_epik_State_Penalty>
  1.8601

> <i_epik_Tot_Q>
0

> <r_epik_Metal_State_Penalty>
  1.8601

> <b_epik_Metal_Only>
0

> <s_m_entry_id>
4729

> <s_canvas_Unique_SMILES_Stereo>
C1CCN([C@H]12)C(=O)CNC2

$$$$
Schrodinger_fragment_275
                    3D
 Structure written by MMmdl.
 26 27  0  0  1  0            999 V2000
    2.1969   -1.5165    0.3947 C   0  0  1  0  0  0
    2.2280   -2.9585    0.1605 N   0  0  0  0  0  0
    3.3517   -3.6891    0.0005 C   0  0  0  0  0  0
    4.7060   -2.9569   -0.0088 C   0  0  0  0  0  0
    3.4706   -0.8079   -0.0991 C   0  0  0  0  0  0
    0.8815   -1.0535   -0.2342 C   0  0  0  0  0  0
   -0.0487   -2.2427    0.0006 C   0  0  0  0  0  0
    0.8719   -3.4712   -0.0331 C   0  0  0  0  0  0
    3.3243   -4.9106   -0.1774 O   0  0  0  0  0  0
    2.1238   -1.3818    1.4760 H   0  0  0  0  0  0
    5.9232   -0.8145    0.1529 C   0  0  0  0  0  0
    5.4082   -3.5002    0.6239 H   0  0  0  0  0  0
    5.0908   -3.0130   -1.0275 H   0  0  0  0  0  0
    3.5039   -0.7814   -1.1896 H   0  0  0  0  0  0
    3.4753    0.2274    0.2447 H   0  0  0  0  0  0
    0.5039   -0.1283    0.2035 H   0  0  0  0  0  0
    1.0074   -0.8899   -1.3059 H   0  0  0  0  0  0
   -0.5100   -2.1585    0.9860 H   0  0  0  0  0  0
   -0.8530   -2.2989   -0.7343 H   0  0  0  0  0  0
    0.8050   -3.9705   -1.0017 H   0  0  0  0  0  0
    0.6068   -4.1975    0.7369 H   0  0  0  0  0  0
    5.8964    0.1920    0.5711 H   0  0  0  0  0  0
    6.1139   -0.7311   -0.9173 H   0  0  0  0  0  0
    6.7653   -1.3369    0.6073 H   0  0  0  0  0  0
    4.6563   -1.5307    0.4167 N   0  3  2  0  0  0
    4.5481   -1.5424    1.4199 H   0  0  0  0  0  0
  1  2  1  0  0  0
  1  5  1  0  0  0
  1  6  1  0  0  0
  1 10  1  0  0  0
  2  3  1  0  0  0
  2  8  1  0  0  0
  3  4  1  0  0  0
  3  9  2  0  0  0
  4 12  1  0  0  0
  4 13  1  0  0  0
  4 25  1  0  0  0
  5 14  1  0  0  0
  5 15  1  0  0  0
  5 25  1  0  0  0
  6  7  1  0  0  0
  6 16  1  0  0  0
  6 17  1  0  0  0
  7  8  1  0  0  0
  7 18  1  0  0  0
  7 19  1  0  0  0
  8 20  1  0  0  0
  8 21  1  0  0  0
 11 22  1  0  0  0
 11 23  1  0  0  0
 11 24  1  0  0  0
 11 25  1  0  0  0
 25 26  1  0  0  0
M  CHG  1  25   1
M  END
> <s_m_entry_name>
Schrodinger_fragment_336

> <i_m_number_of_atoms>
26

> <r_m_molecular_weight>
155.22155

> <s_m_molecular_formula>
C8H15N2O1

> <r_epik_Ionization_Penalty>
  0.0133

> <r_epik_Ionization_Penalty_Charging>
  0.0133

> <r_epik_Ionization_Penalty_Neutral>
  0.0000

> <r_epik_State_Penalty>
  0.0133

> <i_epik_Tot_Q>
1

> <r_epik_Metal_State_Penalty>
  0.0133

> <b_epik_Metal_Only>
0

> <s_m_entry_id>
4730

> <s_canvas_Unique_SMILES_Stereo>
C[N@@H+](C1)CC(=O)N([C@@H]12)CCC2

$$$$
Schrodinger_fragment_275_a
                    3D
 Structure written by MMmdl.
 25 26  0  0  1  0            999 V2000
    2.2159   -1.5305    0.4061 C   0  0  1  0  0  0
    2.2277   -2.9648    0.1338 N   0  0  0  0  0  0
    3.3552   -3.6927    0.0129 C   0  0  0  0  0  0
    4.7024   -2.9385    0.0598 C   0  0  0  0  0  0
    3.4791   -0.8240   -0.1208 C   0  0  0  0  0  0
    0.8951   -1.0432   -0.1906 C   0  0  0  0  0  0
   -0.0399   -2.2357    0.0053 C   0  0  0  0  0  0
    0.8738   -3.4647   -0.0915 C   0  0  0  0  0  0
    3.3453   -4.9116   -0.1784 O   0  0  0  0  0  0
    2.1713   -1.4144    1.4911 H   0  0  0  0  0  0
    5.8835   -0.8181    0.1099 C   0  0  0  0  0  0
    5.3831   -3.4715    0.7251 H   0  0  0  0  0  0
    5.1239   -3.0206   -0.9439 H   0  0  0  0  0  0
    3.5183   -0.8501   -1.2124 H   0  0  0  0  0  0
    3.4621    0.2268    0.1751 H   0  0  0  0  0  0
    0.5269   -0.1332    0.2847 H   0  0  0  0  0  0
    1.0135   -0.8394   -1.2562 H   0  0  0  0  0  0
   -0.4873   -2.1902    0.9996 H   0  0  0  0  0  0
   -0.8534   -2.2570   -0.7211 H   0  0  0  0  0  0
    0.8147   -3.9105   -1.0860 H   0  0  0  0  0  0
    0.6045   -4.2302    0.6378 H   0  0  0  0  0  0
    5.8737    0.2130    0.4675 H   0  0  0  0  0  0
    6.0478   -0.7951   -0.9693 H   0  0  0  0  0  0
    6.7420   -1.3104    0.5698 H   0  0  0  0  0  0
    4.6412   -1.5034    0.4579 N   0  0  0  0  0  0
  1  2  1  0  0  0
  1  5  1  0  0  0
  1  6  1  0  0  0
  1 10  1  0  0  0
  2  3  1  0  0  0
  2  8  1  0  0  0
  3  4  1  0  0  0
  3  9  2  0  0  0
  4 12  1  0  0  0
  4 13  1  0  0  0
  4 25  1  0  0  0
  5 14  1  0  0  0
  5 15  1  0  0  0
  5 25  1  0  0  0
  6  7  1  0  0  0
  6 16  1  0  0  0
  6 17  1  0  0  0
  7  8  1  0  0  0
  7 18  1  0  0  0
  7 19  1  0  0  0
  8 20  1  0  0  0
  8 21  1  0  0  0
 11 22  1  0  0  0
 11 23  1  0  0  0
 11 24  1  0  0  0
 11 25  1  0  0  0
M  END
> <s_m_entry_name>
Schrodinger_fragment_336

> <i_m_number_of_atoms>
26

> <r_m_molecular_weight>
155.22155

> <s_m_molecular_formula>
C8H15N2O1

> <r_epik_Ionization_Penalty>
  2.2579

> <r_epik_Ionization_Penalty_Charging>
  0.0000

> <r_epik_Ionization_Penalty_Neutral>
  2.2579

> <r_epik_State_Penalty>
  2.2579

> <i_epik_Tot_Q>
0

> <r_epik_Metal_State_Penalty>
  2.2579

> <b_epik_Metal_Only>
0

> <s_m_entry_id>
4731

> <s_canvas_Unique_SMILES_Stereo>
CN(C1)CC(=O)N([C@@H]12)CCC2

$$$$
Schrodinger_fragment_276
                    3D
 Structure written by MMmdl.
 26 27  0  0  1  0            999 V2000
    2.3551   -1.4405    0.2138 C   0  0  1  0  0  0
    2.3832   -2.8946    0.0766 N   0  0  0  0  0  0
    3.4759   -3.6203   -0.2423 C   0  0  0  0  0  0
    4.7888   -2.8774   -0.5537 C   0  0  0  0  0  0
    3.5008   -0.7506   -0.5519 C   0  0  0  0  0  0
    0.9365   -1.0441   -0.1991 C   0  0  0  0  0  0
    0.0963   -2.2245    0.2858 C   0  0  0  0  0  0
    1.0291   -3.4391    0.1745 C   0  0  0  0  0  0
    3.4456   -4.8516   -0.3300 O   0  0  0  0  0  0
    2.4654   -1.2268    1.2785 H   0  0  0  0  0  0
    5.3297   -1.0972    1.0881 C   0  0  0  0  0  0
    5.6203   -3.3776   -0.0564 H   0  0  0  0  0  0
    4.9643   -2.9931   -1.6232 H   0  0  0  0  0  0
    3.3205   -0.8107   -1.6263 H   0  0  0  0  0  0
    3.5479    0.3118   -0.3090 H   0  0  0  0  0  0
    0.6188   -0.0935    0.2316 H   0  0  0  0  0  0
    0.8635   -0.9611   -1.2849 H   0  0  0  0  0  0
   -0.1825   -2.0720    1.3298 H   0  0  0  0  0  0
   -0.8251   -2.3475   -0.2852 H   0  0  0  0  0  0
    0.7998   -4.0138   -0.7249 H   0  0  0  0  0  0
    0.9296   -4.1061    1.0324 H   0  0  0  0  0  0
    5.3582   -0.0197    1.2514 H   0  0  0  0  0  0
    6.3497   -1.4674    1.1928 H   0  0  0  0  0  0
    4.7307   -1.5449    1.8810 H   0  0  0  0  0  0
    4.7928   -1.4173   -0.2559 N   0  3  1  0  0  0
    5.4596   -1.0114   -0.8951 H   0  0  0  0  0  0
  1  2  1  0  0  0
  1  5  1  0  0  0
  1  6  1  0  0  0
  1 10  1  0  0  0
  2  3  1  0  0  0
  2  8  1  0  0  0
  3  4  1  0  0  0
  3  9  2  0  0  0
  4 12  1  0  0  0
  4 13  1  0  0  0
  4 25  1  0  0  0
  5 14  1  0  0  0
  5 15  1  0  0  0
  5 25  1  0  0  0
  6  7  1  0  0  0
  6 16  1  0  0  0
  6 17  1  0  0  0
  7  8  1  0  0  0
  7 18  1  0  0  0
  7 19  1  0  0  0
  8 20  1  0  0  0
  8 21  1  0  0  0
 11 22  1  0  0  0
 11 23  1  0  0  0
 11 24  1  0  0  0
 11 25  1  0  0  0
 25 26  1  0  0  0
M  CHG  1  25   1
M  END
> <s_m_entry_name>
Schrodinger_fragment_337

> <i_m_number_of_atoms>
26

> <r_m_molecular_weight>
155.22155

> <s_m_molecular_formula>
C8H15N2O1

> <r_epik_Ionization_Penalty>
  0.0133

> <r_epik_Ionization_Penalty_Charging>
  0.0133

> <r_epik_Ionization_Penalty_Neutral>
  0.0000

> <r_epik_State_Penalty>
  0.0133

> <i_epik_Tot_Q>
1

> <r_epik_Metal_State_Penalty>
  0.0133

> <b_epik_Metal_Only>
0

> <s_m_entry_id>
4732

> <s_canvas_Unique_SMILES_Stereo>
C[N@H+](C1)CC(=O)N([C@@H]12)CCC2

$$$$
Schrodinger_fragment_277
                    3D
 Structure written by MMmdl.
 23 24  0  0  1  0            999 V2000
    5.0087   -3.4262   -0.3069 C   0  0  2  0  0  0
    5.0389   -4.8761   -0.1169 N   0  0  0  0  0  0
    6.1579   -5.6070    0.0792 C   0  0  0  0  0  0
    7.5047   -4.8696    0.1869 C   0  0  0  0  0  0
    6.2511   -2.7256    0.2738 C   0  0  0  0  0  0
    3.6586   -2.9916    0.2660 C   0  0  0  0  0  0
    2.7512   -4.1784   -0.0553 C   0  0  0  0  0  0
    3.6780   -5.4022   -0.0129 C   0  0  0  0  0  0
    6.1292   -6.8337    0.2146 O   0  0  0  0  0  0
    4.9913   -3.2585   -1.3859 H   0  0  0  0  0  0
    7.8369   -4.9455    1.2224 H   0  0  0  0  0  0
    8.2510   -5.3799   -0.4220 H   0  0  0  0  0  0
    6.2875   -1.6822   -0.0413 H   0  0  0  0  0  0
    6.2271   -2.7286    1.3646 H   0  0  0  0  0  0
    3.7269   -2.8620    1.3475 H   0  0  0  0  0  0
    3.2975   -2.0551   -0.1613 H   0  0  0  0  0  0
    1.9101   -4.2632    0.6342 H   0  0  0  0  0  0
    2.3413   -4.0649   -1.0603 H   0  0  0  0  0  0
    3.4595   -6.1037   -0.8197 H   0  0  0  0  0  0
    3.5632   -5.9340    0.9336 H   0  0  0  0  0  0
    7.4594   -3.4348   -0.1888 N   0  3  0  0  0  0
    8.2781   -2.9701    0.1660 H   0  0  0  0  0  0
    7.4917   -3.3662   -1.1922 H   0  0  0  0  0  0
  1  2  1  0  0  0
  1  5  1  0  0  0
  1  6  1  0  0  0
  1 10  1  0  0  0
  2  3  1  0  0  0
  2  8  1  0  0  0
  3  4  1  0  0  0
  3  9  2  0  0  0
  4 11  1  0  0  0
  4 12  1  0  0  0
  4 21  1  0  0  0
  5 13  1  0  0  0
  5 14  1  0  0  0
  5 21  1  0  0  0
  6  7  1  0  0  0
  6 15  1  0  0  0
  6 16  1  0  0  0
  7  8  1  0  0  0
  7 17  1  0  0  0
  7 18  1  0  0  0
  8 19  1  0  0  0
  8 20  1  0  0  0
 21 22  1  0  0  0
 21 23  1  0  0  0
M  CHG  1  21   1
M  END
> <s_m_entry_name>
Schrodinger_fragment_338

> <i_m_number_of_atoms>
23

> <r_m_molecular_weight>
141.19446

> <s_m_molecular_formula>
C7H13N2O1

> <r_epik_Ionization_Penalty>
  0.0525

> <r_epik_Ionization_Penalty_Charging>
  0.0525

> <r_epik_Ionization_Penalty_Neutral>
  0.0000

> <r_epik_State_Penalty>
  0.0262

> <i_epik_Tot_Q>
1

> <r_epik_Metal_State_Penalty>
  0.0262

> <b_epik_Metal_Only>
0

> <s_m_entry_id>
4733

> <s_canvas_Unique_SMILES_Stereo>
C1CCN([C@@H]12)C(=O)C[NH2+]C2

$$$$
Schrodinger_fragment_277_a
                    3D
 Structure written by MMmdl.
 22 23  0  0  1  0            999 V2000
    5.0288   -3.4430   -0.3015 C   0  0  2  0  0  0
    5.0299   -4.8853   -0.0793 N   0  0  0  0  0  0
    6.1532   -5.6104    0.0871 C   0  0  0  0  0  0
    7.4982   -4.8509    0.1202 C   0  0  0  0  0  0
    6.2411   -2.7602    0.3577 C   0  0  0  0  0  0
    3.6635   -2.9818    0.2103 C   0  0  0  0  0  0
    2.7544   -4.1731   -0.0867 C   0  0  0  0  0  0
    3.6680   -5.3982    0.0464 C   0  0  0  0  0  0
    6.1409   -6.8328    0.2503 O   0  0  0  0  0  0
    5.0692   -3.2847   -1.3813 H   0  0  0  0  0  0
    7.9126   -4.9988    1.1186 H   0  0  0  0  0  0
    8.1949   -5.3266   -0.5712 H   0  0  0  0  0  0
    6.2522   -1.6948    0.1213 H   0  0  0  0  0  0
    6.2024   -2.8451    1.4460 H   0  0  0  0  0  0
    3.7017   -2.8081    1.2870 H   0  0  0  0  0  0
    3.3238   -2.0604   -0.2645 H   0  0  0  0  0  0
    1.8888   -4.2185    0.5756 H   0  0  0  0  0  0
    2.3828   -4.1034   -1.1104 H   0  0  0  0  0  0
    3.4527   -6.1509   -0.7135 H   0  0  0  0  0  0
    3.5476   -5.8635    1.0262 H   0  0  0  0  0  0
    7.4545   -3.3914   -0.1556 N   0  0  0  0  0  0
    8.2726   -2.9203    0.2250 H   0  0  0  0  0  0
  1  2  1  0  0  0
  1  5  1  0  0  0
  1  6  1  0  0  0
  1 10  1  0  0  0
  2  3  1  0  0  0
  2  8  1  0  0  0
  3  4  1  0  0  0
  3  9  2  0  0  0
  4 11  1  0  0  0
  4 12  1  0  0  0
  4 21  1  0  0  0
  5 13  1  0  0  0
  5 14  1  0  0  0
  5 21  1  0  0  0
  6  7  1  0  0  0
  6 15  1  0  0  0
  6 16  1  0  0  0
  7  8  1  0  0  0
  7 17  1  0  0  0
  7 18  1  0  0  0
  8 19  1  0  0  0
  8 20  1  0  0  0
 21 22  1  0  0  0
M  END
> <s_m_entry_name>
Schrodinger_fragment_338

> <i_m_number_of_atoms>
23

> <r_m_molecular_weight>
141.19446

> <s_m_molecular_formula>
C7H13N2O1

> <r_epik_Ionization_Penalty>
  1.8601

> <r_epik_Ionization_Penalty_Charging>
  0.0000

> <r_epik_Ionization_Penalty_Neutral>
  1.8601

> <r_epik_State_Penalty>
  1.8601

> <i_epik_Tot_Q>
0

> <r_epik_Metal_State_Penalty>
  1.8601

> <b_epik_Metal_Only>
0

> <s_m_entry_id>
4734

> <s_canvas_Unique_SMILES_Stereo>
C1CCN([C@@H]12)C(=O)CNC2

$$$$
Schrodinger_fragment_278
                    3D
 Structure written by MMmdl.
 26 27  0  0  1  0            999 V2000
    2.3742   -1.4264   -0.0760 C   0  0  2  0  0  0
    2.4085   -2.8861   -0.0277 N   0  0  0  0  0  0
    3.4884   -3.6236    0.3076 C   0  0  0  0  0  0
    4.7743   -2.8935    0.7389 C   0  0  0  0  0  0
    3.4679   -0.7786    0.7952 C   0  0  0  0  0  0
    0.9307   -1.0654    0.2790 C   0  0  0  0  0  0
    0.1308   -2.2183   -0.3253 C   0  0  0  0  0  0
    1.0675   -3.4317   -0.2364 C   0  0  0  0  0  0
    3.4651   -4.8580    0.3170 O   0  0  0  0  0  0
    2.5426   -1.1461   -1.1173 H   0  0  0  0  0  0
    5.3901   -1.0111   -0.7559 C   0  0  0  0  0  0
    4.8900   -3.0746    1.8074 H   0  0  0  0  0  0
    5.6374   -3.3565    0.2599 H   0  0  0  0  0  0
    3.5185    0.2971    0.6217 H   0  0  0  0  0  0
    3.2277   -0.9068    1.8518 H   0  0  0  0  0  0
    0.7955   -1.0506    1.3619 H   0  0  0  0  0  0
    0.6287   -0.0916   -0.1094 H   0  0  0  0  0  0
   -0.8202   -2.3823    0.1834 H   0  0  0  0  0  0
   -0.0899   -2.0026   -1.3721 H   0  0  0  0  0  0
    1.0232   -4.0445   -1.1382 H   0  0  0  0  0  0
    0.7932   -4.0628    0.6112 H   0  0  0  0  0  0
    5.4174    0.0747   -0.8502 H   0  0  0  0  0  0
    4.8413   -1.4121   -1.6079 H   0  0  0  0  0  0
    6.4179   -1.3678   -0.8248 H   0  0  0  0  0  0
    4.7811   -1.4176    0.5329 N   0  3  2  0  0  0
    5.4066   -1.0483    1.2330 H   0  0  0  0  0  0
  1  2  1  0  0  0
  1  5  1  0  0  0
  1  6  1  0  0  0
  1 10  1  0  0  0
  2  3  1  0  0  0
  2  8  1  0  0  0
  3  4  1  0  0  0
  3  9  2  0  0  0
  4 12  1  0  0  0
  4 13  1  0  0  0
  4 25  1  0  0  0
  5 14  1  0  0  0
  5 15  1  0  0  0
  5 25  1  0  0  0
  6  7  1  0  0  0
  6 16  1  0  0  0
  6 17  1  0  0  0
  7  8  1  0  0  0
  7 18  1  0  0  0
  7 19  1  0  0  0
  8 20  1  0  0  0
  8 21  1  0  0  0
 11 22  1  0  0  0
 11 23  1  0  0  0
 11 24  1  0  0  0
 11 25  1  0  0  0
 25 26  1  0  0  0
M  CHG  1  25   1
M  END
> <s_m_entry_name>
Schrodinger_fragment_339

> <i_m_number_of_atoms>
26

> <r_m_molecular_weight>
155.22155

> <s_m_molecular_formula>
C8H15N2O1

> <r_epik_Ionization_Penalty>
  0.0133

> <r_epik_Ionization_Penalty_Charging>
  0.0133

> <r_epik_Ionization_Penalty_Neutral>
  0.0000

> <r_epik_State_Penalty>
  0.0133

> <i_epik_Tot_Q>
1

> <r_epik_Metal_State_Penalty>
  0.0133

> <b_epik_Metal_Only>
0

> <s_m_entry_id>
4735

> <s_canvas_Unique_SMILES_Stereo>
C[N@@H+](C1)CC(=O)N([C@H]12)CCC2

$$$$
Schrodinger_fragment_278_a
                    3D
 Structure written by MMmdl.
 25 26  0  0  1  0            999 V2000
    2.3990   -1.4244   -0.0775 C   0  0  2  0  0  0
    2.4215   -2.8834   -0.0370 N   0  0  0  0  0  0
    3.5057   -3.6163    0.2851 C   0  0  0  0  0  0
    4.7667   -2.8642    0.7678 C   0  0  0  0  0  0
    3.4875   -0.7841    0.8127 C   0  0  0  0  0  0
    0.9581   -1.0642    0.2834 C   0  0  0  0  0  0
    0.1511   -2.2068   -0.3321 C   0  0  0  0  0  0
    1.0829   -3.4248   -0.2609 C   0  0  0  0  0  0
    3.5065   -4.8498    0.2616 O   0  0  0  0  0  0
    2.5604   -1.1320   -1.1162 H   0  0  0  0  0  0
    5.3126   -1.0538   -0.7744 C   0  0  0  0  0  0
    4.8272   -3.0496    1.8411 H   0  0  0  0  0  0
    5.6555   -3.3325    0.3413 H   0  0  0  0  0  0
    3.5232    0.2959    0.6574 H   0  0  0  0  0  0
    3.2377   -0.9284    1.8659 H   0  0  0  0  0  0
    0.8272   -1.0613    1.3668 H   0  0  0  0  0  0
    0.6601   -0.0845   -0.0924 H   0  0  0  0  0  0
   -0.7986   -2.3728    0.1783 H   0  0  0  0  0  0
   -0.0720   -1.9776   -1.3753 H   0  0  0  0  0  0
    1.0436   -4.0209   -1.1739 H   0  0  0  0  0  0
    0.8067   -4.0701    0.5749 H   0  0  0  0  0  0
    5.3102    0.0254   -0.9362 H   0  0  0  0  0  0
    4.7420   -1.5169   -1.5807 H   0  0  0  0  0  0
    6.3464   -1.3868   -0.8799 H   0  0  0  0  0  0
    4.8021   -1.3894    0.5571 N   0  0  0  0  0  0
  1  2  1  0  0  0
  1  5  1  0  0  0
  1  6  1  0  0  0
  1 10  1  0  0  0
  2  3  1  0  0  0
  2  8  1  0  0  0
  3  4  1  0  0  0
  3  9  2  0  0  0
  4 12  1  0  0  0
  4 13  1  0  0  0
  4 25  1  0  0  0
  5 14  1  0  0  0
  5 15  1  0  0  0
  5 25  1  0  0  0
  6  7  1  0  0  0
  6 16  1  0  0  0
  6 17  1  0  0  0
  7  8  1  0  0  0
  7 18  1  0  0  0
  7 19  1  0  0  0
  8 20  1  0  0  0
  8 21  1  0  0  0
 11 22  1  0  0  0
 11 23  1  0  0  0
 11 24  1  0  0  0
 11 25  1  0  0  0
M  END
> <s_m_entry_name>
Schrodinger_fragment_339

> <i_m_number_of_atoms>
26

> <r_m_molecular_weight>
155.22155

> <s_m_molecular_formula>
C8H15N2O1

> <r_epik_Ionization_Penalty>
  2.2579

> <r_epik_Ionization_Penalty_Charging>
  0.0000

> <r_epik_Ionization_Penalty_Neutral>
  2.2579

> <r_epik_State_Penalty>
  2.2579

> <i_epik_Tot_Q>
0

> <r_epik_Metal_State_Penalty>
  2.2579

> <b_epik_Metal_Only>
0

> <s_m_entry_id>
4736

> <s_canvas_Unique_SMILES_Stereo>
CN(C1)CC(=O)N([C@H]12)CCC2

$$$$
Schrodinger_fragment_279
                    3D
 Structure written by MMmdl.
 26 27  0  0  1  0            999 V2000
    2.2305   -1.4970   -0.2828 C   0  0  2  0  0  0
    2.2558   -2.9472   -0.1060 N   0  0  0  0  0  0
    3.3720   -3.6801    0.0921 C   0  0  0  0  0  0
    4.7190   -2.9444    0.2134 C   0  0  0  0  0  0
    3.4679   -0.8050    0.3158 C   0  0  0  0  0  0
    0.8769   -1.0645    0.2833 C   0  0  0  0  0  0
   -0.0305   -2.2462   -0.0557 C   0  0  0  0  0  0
    0.8934   -3.4720   -0.0160 C   0  0  0  0  0  0
    3.3409   -4.9079    0.2183 O   0  0  0  0  0  0
    2.2223   -1.3184   -1.3602 H   0  0  0  0  0  0
    5.9313   -0.7931    0.2130 C   0  0  0  0  0  0
    5.0417   -3.0409    1.2504 H   0  0  0  0  0  0
    5.4613   -3.4590   -0.3971 H   0  0  0  0  0  0
    3.4875    0.2435    0.0153 H   0  0  0  0  0  0
    3.4350   -0.8230    1.4064 H   0  0  0  0  0  0
    0.9367   -0.9445    1.3664 H   0  0  0  0  0  0
    0.5211   -0.1234   -0.1386 H   0  0  0  0  0  0
   -0.8775   -2.3351    0.6262 H   0  0  0  0  0  0
   -0.4318   -2.1232   -1.0630 H   0  0  0  0  0  0
    0.6796   -4.1670   -0.8297 H   0  0  0  0  0  0
    0.7710   -4.0106    0.9256 H   0  0  0  0  0  0
    5.9240    0.2296   -0.1647 H   0  0  0  0  0  0
    6.8024   -1.2937   -0.2102 H   0  0  0  0  0  0
    6.0563   -0.7530    1.2954 H   0  0  0  0  0  0
    4.6868   -1.5021   -0.1561 N   0  3  1  0  0  0
    4.6396   -1.4732   -1.1636 H   0  0  0  0  0  0
  1  2  1  0  0  0
  1  5  1  0  0  0
  1  6  1  0  0  0
  1 10  1  0  0  0
  2  3  1  0  0  0
  2  8  1  0  0  0
  3  4  1  0  0  0
  3  9  2  0  0  0
  4 12  1  0  0  0
  4 13  1  0  0  0
  4 25  1  0  0  0
  5 14  1  0  0  0
  5 15  1  0  0  0
  5 25  1  0  0  0
  6  7  1  0  0  0
  6 16  1  0  0  0
  6 17  1  0  0  0
  7  8  1  0  0  0
  7 18  1  0  0  0
  7 19  1  0  0  0
  8 20  1  0  0  0
  8 21  1  0  0  0
 11 22  1  0  0  0
 11 23  1  0  0  0
 11 24  1  0  0  0
 11 25  1  0  0  0
 25 26  1  0  0  0
M  CHG  1  25   1
M  END
> <s_m_entry_name>
Schrodinger_fragment_340

> <i_m_number_of_atoms>
26

> <r_m_molecular_weight>
155.22155

> <s_m_molecular_formula>
C8H15N2O1

> <r_epik_Ionization_Penalty>
  0.0133

> <r_epik_Ionization_Penalty_Charging>
  0.0133

> <r_epik_Ionization_Penalty_Neutral>
  0.0000

> <r_epik_State_Penalty>
  0.0133

> <i_epik_Tot_Q>
1

> <r_epik_Metal_State_Penalty>
  0.0133

> <b_epik_Metal_Only>
0

> <s_m_entry_id>
4737

> <s_canvas_Unique_SMILES_Stereo>
C[N@H+](C1)CC(=O)N([C@H]12)CCC2

$$$$
Schrodinger_fragment_280
                    3D
 Structure written by MMmdl.
 17 18  0  0  1  0            999 V2000
    2.1657    2.1363   -0.0219 C   0  0  0  0  0  0
    2.1648    0.7714   -0.0078 N   0  0  0  0  0  0
    3.3415   -0.0527   -0.1870 C   0  0  0  0  0  0
    4.6043    0.7528    0.2248 C   0  0  0  0  0  0
    4.5451    2.1845   -0.1331 N   0  0  0  0  0  0
    3.4159    2.9125   -0.1709 C   0  0  0  0  0  0
    0.8903    2.5966    0.1114 C   0  0  0  0  0  0
    0.1450    1.3808    0.1974 C   0  0  0  0  0  0
    0.9077    0.2854    0.1154 N   0  0  0  0  0  0
    3.4156    4.1352   -0.3279 O   0  0  0  0  0  0
    3.2495   -0.9680    0.3991 H   0  0  0  0  0  0
    3.3985   -0.3380   -1.2381 H   0  0  0  0  0  0
    4.7290    0.6906    1.3069 H   0  0  0  0  0  0
    5.4956    0.3015   -0.2119 H   0  0  0  0  0  0
    5.4214    2.6727   -0.2569 H   0  0  0  0  0  0
    0.5499    3.6218    0.1394 H   0  0  0  0  0  0
   -0.9240    1.2622    0.3095 H   0  0  0  0  0  0
  1  2  1  0  0  0
  1  6  1  0  0  0
  1  7  2  0  0  0
  2  3  1  0  0  0
  2  9  1  0  0  0
  3  4  1  0  0  0
  3 11  1  0  0  0
  3 12  1  0  0  0
  4  5  1  0  0  0
  4 13  1  0  0  0
  4 14  1  0  0  0
  5  6  1  0  0  0
  5 15  1  0  0  0
  6 10  2  0  0  0
  7  8  1  0  0  0
  7 16  1  0  0  0
  8  9  2  0  0  0
  8 17  1  0  0  0
M  END
> <s_m_entry_name>
Schrodinger_fragment_341

> <i_m_number_of_atoms>
17

> <r_m_molecular_weight>
137.14219

> <s_m_molecular_formula>
C6H7N3O1

> <r_epik_Ionization_Penalty>
  0.0000

> <r_epik_Ionization_Penalty_Charging>
  0.0000

> <r_epik_Ionization_Penalty_Neutral>
  0.0000

> <r_epik_State_Penalty>
  0.0000

> <i_epik_Tot_Q>
0

> <r_epik_Metal_State_Penalty>
  0.0338

> <b_epik_Metal_Only>
0

> <s_m_entry_id>
4738

> <s_canvas_Unique_SMILES_Stereo>
c1cnn(c12)CCNC2=O

$$$$
Schrodinger_fragment_280_a
                    3D
 Structure written by MMmdl.
 16 17  0  0  1  0            999 V2000
    2.1827    2.1497   -0.0184 C   0  0  0  0  0  0
    2.1607    0.7839   -0.0226 N   0  0  0  0  0  0
    3.3410   -0.0319   -0.2081 C   0  0  0  0  0  0
    4.5932    0.7716    0.2633 C   0  0  0  0  0  0
    4.5956    2.2086   -0.1045 N   0  0  0  0  0  0
    3.4838    2.8250   -0.1633 C   0  0  0  0  0  0
    0.9023    2.6021    0.1355 C   0  0  0  0  0  0
    0.1505    1.3900    0.2026 C   0  0  0  0  0  0
    0.9042    0.2925    0.0980 N   0  0  0  0  0  0
    3.2686    4.0214   -0.3838 O   0  5  0  0  0  0
    3.2393   -0.9654    0.3477 H   0  0  0  0  0  0
    3.4181   -0.2858   -1.2664 H   0  0  0  0  0  0
    4.6724    0.6852    1.3491 H   0  0  0  0  0  0
    5.4877    0.2866   -0.1314 H   0  0  0  0  0  0
    0.5650    3.6265    0.1858 H   0  0  0  0  0  0
   -0.9184    1.2763    0.3193 H   0  0  0  0  0  0
  1  2  1  0  0  0
  1  6  1  0  0  0
  1  7  2  0  0  0
  2  3  1  0  0  0
  2  9  1  0  0  0
  3  4  1  0  0  0
  3 11  1  0  0  0
  3 12  1  0  0  0
  4  5  1  0  0  0
  4 13  1  0  0  0
  4 14  1  0  0  0
  5  6  2  0  0  0
  6 10  1  0  0  0
  7  8  1  0  0  0
  7 15  1  0  0  0
  8  9  2  0  0  0
  8 16  1  0  0  0
M  CHG  1  10  -1
M  END
> <s_m_entry_name>
Schrodinger_fragment_341

> <i_m_number_of_atoms>
17

> <r_m_molecular_weight>
137.14219

> <s_m_molecular_formula>
C6H7N3O1

> <r_epik_Ionization_Penalty>
  5.7362

> <r_epik_Ionization_Penalty_Charging>
  5.7359

> <r_epik_Ionization_Penalty_Neutral>
  0.0002

> <r_epik_State_Penalty>
  5.7359

> <i_epik_Tot_Q>
-1

> <r_epik_Metal_State_Penalty>
  1.7129

> <b_epik_Metal_Only>
1

> <s_m_entry_id>
4739

> <s_canvas_Unique_SMILES_Stereo>
c1cnn(c12)CCN=C2[O-]

$$$$
Schrodinger_fragment_281
                    3D
 Structure written by MMmdl.
 20 21  0  0  1  0            999 V2000
    2.1935   -2.2324    0.0769 C   0  0  0  0  0  0
    2.1924   -3.5886   -0.0603 N   0  0  0  0  0  0
    3.3699   -4.3859   -0.3119 C   0  0  0  0  0  0
    4.6162   -3.6390    0.2308 C   0  0  0  0  0  0
    4.5909   -2.1712    0.0161 N   0  0  0  0  0  0
    3.4442   -1.4432    0.0311 C   0  0  0  0  0  0
    0.9145   -1.7894    0.2411 C   0  0  0  0  0  0
    0.1695   -3.0069    0.1822 C   0  0  0  0  0  0
    0.9358   -4.0857   -0.0092 N   0  0  0  0  0  0
    3.4151   -0.2070   -0.0023 O   0  0  0  0  0  0
    5.8934   -1.5093   -0.0809 C   0  0  0  0  0  0
    3.2635   -5.3667    0.1535 H   0  0  0  0  0  0
    3.4543   -4.5372   -1.3888 H   0  0  0  0  0  0
    4.6902   -3.8079    1.3061 H   0  0  0  0  0  0
    5.5099   -4.0821   -0.2098 H   0  0  0  0  0  0
    0.5716   -0.7735    0.3766 H   0  0  0  0  0  0
   -0.9007   -3.1374    0.2651 H   0  0  0  0  0  0
    5.9967   -1.0152   -1.0478 H   0  0  0  0  0  0
    6.7250   -2.2060    0.0266 H   0  0  0  0  0  0
    6.0019   -0.7528    0.6979 H   0  0  0  0  0  0
  1  2  1  0  0  0
  1  6  1  0  0  0
  1  7  2  0  0  0
  2  3  1  0  0  0
  2  9  1  0  0  0
  3  4  1  0  0  0
  3 12  1  0  0  0
  3 13  1  0  0  0
  4  5  1  0  0  0
  4 14  1  0  0  0
  4 15  1  0  0  0
  5  6  1  0  0  0
  5 11  1  0  0  0
  6 10  2  0  0  0
  7  8  1  0  0  0
  7 16  1  0  0  0
  8  9  2  0  0  0
  8 17  1  0  0  0
 11 18  1  0  0  0
 11 19  1  0  0  0
 11 20  1  0  0  0
M  END
> <s_m_entry_name>
Schrodinger_fragment_342

> <i_m_number_of_atoms>
20

> <r_m_molecular_weight>
151.16928

> <s_m_molecular_formula>
C7H9N3O1

> <r_epik_Ionization_Penalty>
  0.0000

> <r_epik_Ionization_Penalty_Charging>
  0.0000

> <r_epik_Ionization_Penalty_Neutral>
  0.0000

> <r_epik_State_Penalty>
  0.0000

> <i_epik_Tot_Q>
0

> <r_epik_Metal_State_Penalty>
  0.0000

> <b_epik_Metal_Only>
0

> <s_m_entry_id>
4740

> <s_canvas_Unique_SMILES_Stereo>
O=C1N(C)CCn(c12)ncc2

$$$$
Schrodinger_fragment_282
                    3D
 Structure written by MMmdl.
 15 16  0  0  1  0            999 V2000
    2.1818    2.1753    0.0247 C   0  0  0  0  0  0
    2.2388    0.8075    0.0239 C   0  0  0  0  0  0
    3.3958    0.0477    0.0248 N   0  0  0  0  0  0
    4.5044    0.7428    0.0266 C   0  0  0  0  0  0
    4.5591    2.1453    0.0275 N   0  0  0  0  0  0
    3.4608    2.9154    0.0267 C   0  0  0  0  0  0
    0.8015    2.5385    0.0233 C   0  0  0  0  0  0
    0.0635    1.3804    0.0217 C   0  0  0  0  0  0
    0.9520    0.3193    0.0221 N   0  0  0  0  0  0
    3.5093    4.1480    0.0275 O   0  0  0  0  0  0
    5.4897    0.2735    0.0275 H   0  0  0  0  0  0
    5.4605    2.5968    0.0289 H   0  0  0  0  0  0
    0.3975    3.5419    0.0234 H   0  0  0  0  0  0
   -1.0064    1.2121    0.0203 H   0  0  0  0  0  0
    0.6903   -0.6629    0.0211 H   0  0  0  0  0  0
  1  2  2  0  0  0
  1  6  1  0  0  0
  1  7  1  0  0  0
  2  3  1  0  0  0
  2  9  1  0  0  0
  3  4  2  0  0  0
  4  5  1  0  0  0
  4 11  1  0  0  0
  5  6  1  0  0  0
  5 12  1  0  0  0
  6 10  2  0  0  0
  7  8  2  0  0  0
  7 13  1  0  0  0
  8  9  1  0  0  0
  8 14  1  0  0  0
  9 15  1  0  0  0
M  END
> <s_m_entry_name>
Schrodinger_fragment_343

> <i_m_number_of_atoms>
15

> <r_m_molecular_weight>
135.12625

> <s_m_molecular_formula>
C6H5N3O1

> <r_epik_Ionization_Penalty>
  0.0025

> <r_epik_Ionization_Penalty_Charging>
  0.0025

> <r_epik_Ionization_Penalty_Neutral>
  0.0000

> <r_epik_State_Penalty>
  0.0000

> <i_epik_Tot_Q>
0

> <r_epik_Metal_State_Penalty>
  0.3524

> <b_epik_Metal_Only>
0

> <s_m_entry_id>
4741

> <s_canvas_Unique_SMILES_Stereo>
c1c[nH]c(c12)nc[nH]c2=O

$$$$
Schrodinger_fragment_282_a
                    3D
 Structure written by MMmdl.
 14 15  0  0  1  0            999 V2000
    2.1718    2.1836    0.0247 C   0  0  0  0  0  0
    2.2615    0.7692    0.0239 C   0  0  0  0  0  0
    3.4016    0.0288    0.0248 N   0  0  0  0  0  0
    4.4893    0.7924    0.0266 C   0  0  0  0  0  0
    4.5486    2.1300    0.0275 N   0  0  0  0  0  0
    3.4137    2.8421    0.0266 C   0  0  0  0  0  0
    0.7811    2.5471    0.0233 C   0  0  0  0  0  0
    0.0679    1.3730    0.0217 C   0  0  0  0  0  0
    0.9627    0.3114    0.0221 N   0  0  0  0  0  0
    3.5661    4.1914    0.0276 O   0  5  0  0  0  0
    5.4360    0.2712    0.0274 H   0  0  0  0  0  0
    0.3894    3.5580    0.0234 H   0  0  0  0  0  0
   -1.0042    1.2054    0.0203 H   0  0  0  0  0  0
    0.6830   -0.6637    0.0211 H   0  0  0  0  0  0
  1  2  2  0  0  0
  1  6  1  0  0  0
  1  7  1  0  0  0
  2  3  1  0  0  0
  2  9  1  0  0  0
  3  4  2  0  0  0
  4  5  1  0  0  0
  4 11  1  0  0  0
  5  6  2  0  0  0
  6 10  1  0  0  0
  7  8  2  0  0  0
  7 12  1  0  0  0
  8  9  1  0  0  0
  8 13  1  0  0  0
  9 14  1  0  0  0
M  CHG  1  10  -1
M  END
> <s_m_entry_name>
Schrodinger_fragment_343

> <i_m_number_of_atoms>
15

> <r_m_molecular_weight>
135.12625

> <s_m_molecular_formula>
C6H5N3O1

> <r_epik_Ionization_Penalty>
  5.5540

> <r_epik_Ionization_Penalty_Charging>
  0.0000

> <r_epik_Ionization_Penalty_Neutral>
  5.5540

> <r_epik_State_Penalty>
  3.2373

> <i_epik_Tot_Q>
-1

> <r_epik_Metal_State_Penalty>
  0.4754

> <b_epik_Metal_Only>
1

> <s_m_entry_id>
4742

> <s_canvas_Unique_SMILES_Stereo>
c1c[nH]c(c12)ncnc2[O-]

$$$$
Schrodinger_fragment_283
                    3D
 Structure written by MMmdl.
 18 19  0  0  1  0            999 V2000
    2.2029   -2.1918    0.0240 C   0  0  0  0  0  0
    2.2426   -3.5598    0.0241 C   0  0  0  0  0  0
    3.3972   -4.3270    0.0269 N   0  0  0  0  0  0
    4.5116   -3.6425    0.0296 C   0  0  0  0  0  0
    4.5787   -2.2414    0.0298 N   0  0  0  0  0  0
    3.4870   -1.4629    0.0271 C   0  0  0  0  0  0
    0.8305   -1.8148    0.0207 C   0  0  0  0  0  0
    0.0870   -2.9674    0.0189 C   0  0  0  0  0  0
    0.9514   -4.0533    0.0210 N   0  0  0  0  0  0
    3.5456   -0.2307    0.0273 O   0  0  0  0  0  0
    0.5662   -5.4522    0.0200 C   0  0  0  0  0  0
    5.4925   -4.1208    0.0320 H   0  0  0  0  0  0
    5.4838   -1.7975    0.0320 H   0  0  0  0  0  0
    0.4344   -0.8085    0.0197 H   0  0  0  0  0  0
   -0.9861   -3.1126    0.0162 H   0  0  0  0  0  0
   -0.5195   -5.5496    0.0174 H   0  0  0  0  0  0
    0.9630   -5.9440    0.9084 H   0  0  0  0  0  0
    0.9673   -5.9440   -0.8663 H   0  0  0  0  0  0
  1  2  2  0  0  0
  1  6  1  0  0  0
  1  7  1  0  0  0
  2  3  1  0  0  0
  2  9  1  0  0  0
  3  4  2  0  0  0
  4  5  1  0  0  0
  4 12  1  0  0  0
  5  6  1  0  0  0
  5 13  1  0  0  0
  6 10  2  0  0  0
  7  8  2  0  0  0
  7 14  1  0  0  0
  8  9  1  0  0  0
  8 15  1  0  0  0
  9 11  1  0  0  0
 11 16  1  0  0  0
 11 17  1  0  0  0
 11 18  1  0  0  0
M  END
> <s_m_entry_name>
Schrodinger_fragment_344

> <i_m_number_of_atoms>
18

> <r_m_molecular_weight>
149.15334

> <s_m_molecular_formula>
C7H7N3O1

> <r_epik_Ionization_Penalty>
  0.0018

> <r_epik_Ionization_Penalty_Charging>
  0.0018

> <r_epik_Ionization_Penalty_Neutral>
  0.0000

> <r_epik_State_Penalty>
  0.0000

> <i_epik_Tot_Q>
0

> <r_epik_Metal_State_Penalty>
  0.3330

> <b_epik_Metal_Only>
0

> <s_m_entry_id>
4743

> <s_canvas_Unique_SMILES_Stereo>
c1cn(C)c(c12)nc[nH]c2=O

$$$$
Schrodinger_fragment_283_a
                    3D
 Structure written by MMmdl.
 17 18  0  0  1  0            999 V2000
    2.1953   -2.1830    0.0240 C   0  0  0  0  0  0
    2.2706   -3.5986    0.0242 C   0  0  0  0  0  0
    3.4110   -4.3455    0.0270 N   0  0  0  0  0  0
    4.5010   -3.5897    0.0296 C   0  0  0  0  0  0
    4.5691   -2.2533    0.0298 N   0  0  0  0  0  0
    3.4403   -1.5338    0.0270 C   0  0  0  0  0  0
    0.8128   -1.8070    0.0206 C   0  0  0  0  0  0
    0.0942   -2.9761    0.0189 C   0  0  0  0  0  0
    0.9627   -4.0650    0.0210 N   0  0  0  0  0  0
    3.6015   -0.1857    0.0274 O   0  5  0  0  0  0
    0.5565   -5.4581    0.0200 C   0  0  0  0  0  0
    5.4444   -4.1168    0.0319 H   0  0  0  0  0  0
    0.4281   -0.7942    0.0197 H   0  0  0  0  0  0
   -0.9800   -3.1209    0.0163 H   0  0  0  0  0  0
   -0.5304   -5.5419    0.0174 H   0  0  0  0  0  0
    0.9496   -5.9538    0.9080 H   0  0  0  0  0  0
    0.9539   -5.9538   -0.8660 H   0  0  0  0  0  0
  1  2  2  0  0  0
  1  6  1  0  0  0
  1  7  1  0  0  0
  2  3  1  0  0  0
  2  9  1  0  0  0
  3  4  2  0  0  0
  4  5  1  0  0  0
  4 12  1  0  0  0
  5  6  2  0  0  0
  6 10  1  0  0  0
  7  8  2  0  0  0
  7 13  1  0  0  0
  8  9  1  0  0  0
  8 14  1  0  0  0
  9 11  1  0  0  0
 11 15  1  0  0  0
 11 16  1  0  0  0
 11 17  1  0  0  0
M  CHG  1  10  -1
M  END
> <s_m_entry_name>
Schrodinger_fragment_344

> <i_m_number_of_atoms>
18

> <r_m_molecular_weight>
149.15334

> <s_m_molecular_formula>
C7H7N3O1

> <r_epik_Ionization_Penalty>
  6.0159

> <r_epik_Ionization_Penalty_Charging>
  0.0000

> <r_epik_Ionization_Penalty_Neutral>
  6.0159

> <r_epik_State_Penalty>
  3.4357

> <i_epik_Tot_Q>
-1

> <r_epik_Metal_State_Penalty>
  0.5001

> <b_epik_Metal_Only>
1

> <s_m_entry_id>
4744

> <s_canvas_Unique_SMILES_Stereo>
c1cn(C)c(c12)ncnc2[O-]

$$$$
Schrodinger_fragment_284
                    3D
 Structure written by MMmdl.
 21 22  0  0  1  0            999 V2000
    2.1658   -2.1744    0.0234 C   0  0  0  0  0  0
    2.2277   -3.5397    0.0239 C   0  0  0  0  0  0
    3.3919   -4.2866    0.0265 N   0  0  0  0  0  0
    4.4949   -3.5852    0.0287 C   0  0  0  0  0  0
    4.5600   -2.1736    0.0285 N   0  0  0  0  0  0
    3.4344   -1.4187    0.0259 C   0  0  0  0  0  0
    0.7868   -1.8209    0.0204 C   0  0  0  0  0  0
    0.0626   -2.9854    0.0191 C   0  0  0  0  0  0
    0.9456   -4.0559    0.0213 N   0  0  0  0  0  0
    3.4349   -0.1823    0.0256 O   0  0  0  0  0  0
    0.5850   -5.4613    0.0209 C   0  0  0  0  0  0
    5.9054   -1.5877    0.0312 C   0  0  0  0  0  0
    5.4743   -4.0674    0.0309 H   0  0  0  0  0  0
    0.3736   -0.8214    0.0192 H   0  0  0  0  0  0
   -1.0079   -3.1489    0.0169 H   0  0  0  0  0  0
   -0.4989   -5.5777    0.0186 H   0  0  0  0  0  0
    0.9906   -5.9458    0.9092 H   0  0  0  0  0  0
    0.9943   -5.9462   -0.8655 H   0  0  0  0  0  0
    5.9025   -0.4970    0.0309 H   0  0  0  0  0  0
    6.4630   -1.9071   -0.8505 H   0  0  0  0  0  0
    6.4593   -1.9066    0.9153 H   0  0  0  0  0  0
  1  2  2  0  0  0
  1  6  1  0  0  0
  1  7  1  0  0  0
  2  3  1  0  0  0
  2  9  1  0  0  0
  3  4  2  0  0  0
  4  5  1  0  0  0
  4 13  1  0  0  0
  5  6  1  0  0  0
  5 12  1  0  0  0
  6 10  2  0  0  0
  7  8  2  0  0  0
  7 14  1  0  0  0
  8  9  1  0  0  0
  8 15  1  0  0  0
  9 11  1  0  0  0
 11 16  1  0  0  0
 11 17  1  0  0  0
 11 18  1  0  0  0
 12 19  1  0  0  0
 12 20  1  0  0  0
 12 21  1  0  0  0
M  END
> <s_m_entry_name>
Schrodinger_fragment_345

> <i_m_number_of_atoms>
21

> <r_m_molecular_weight>
163.18043

> <s_m_molecular_formula>
C8H9N3O1

> <r_epik_Ionization_Penalty>
  0.0000

> <r_epik_Ionization_Penalty_Charging>
  0.0000

> <r_epik_Ionization_Penalty_Neutral>
  0.0000

> <r_epik_State_Penalty>
  0.0000

> <i_epik_Tot_Q>
0

> <r_epik_Metal_State_Penalty>
  0.0000

> <b_epik_Metal_Only>
0

> <s_m_entry_id>
4745

> <s_canvas_Unique_SMILES_Stereo>
c1cn(C)c(c12)ncn(C)c2=O

$$$$
Schrodinger_fragment_285
                    3D
 Structure written by MMmdl.
 18 19  0  0  1  0            999 V2000
    2.1844   -2.1814    0.0237 C   0  0  0  0  0  0
    2.2636   -3.5462    0.0234 C   0  0  0  0  0  0
    3.4298   -4.2859    0.0236 N   0  0  0  0  0  0
    4.5269   -3.5740    0.0241 C   0  0  0  0  0  0
    4.5797   -2.1611    0.0243 N   0  0  0  0  0  0
    3.4476   -1.4148    0.0243 C   0  0  0  0  0  0
    0.7978   -1.8416    0.0233 C   0  0  0  0  0  0
    0.0791   -3.0116    0.0228 C   0  0  0  0  0  0
    0.9856   -4.0568    0.0229 N   0  0  0  0  0  0
    3.4381   -0.1783    0.0246 O   0  0  0  0  0  0
    5.9201   -1.5638    0.0246 C   0  0  0  0  0  0
    5.5107   -4.0473    0.0243 H   0  0  0  0  0  0
    0.3769   -0.8452    0.0234 H   0  0  0  0  0  0
   -0.9878   -3.1980    0.0223 H   0  0  0  0  0  0
    0.7409   -5.0434    0.0225 H   0  0  0  0  0  0
    5.9081   -0.4731    0.0243 H   0  0  0  0  0  0
    6.4788   -1.8785   -0.8580 H   0  0  0  0  0  0
    6.4782   -1.8781    0.9077 H   0  0  0  0  0  0
  1  2  2  0  0  0
  1  6  1  0  0  0
  1  7  1  0  0  0
  2  3  1  0  0  0
  2  9  1  0  0  0
  3  4  2  0  0  0
  4  5  1  0  0  0
  4 12  1  0  0  0
  5  6  1  0  0  0
  5 11  1  0  0  0
  6 10  2  0  0  0
  7  8  2  0  0  0
  7 13  1  0  0  0
  8  9  1  0  0  0
  8 14  1  0  0  0
  9 15  1  0  0  0
 11 16  1  0  0  0
 11 17  1  0  0  0
 11 18  1  0  0  0
M  END
> <s_m_entry_name>
Schrodinger_fragment_346

> <i_m_number_of_atoms>
18

> <r_m_molecular_weight>
149.15334

> <s_m_molecular_formula>
C7H7N3O1

> <r_epik_Ionization_Penalty>
  0.0000

> <r_epik_Ionization_Penalty_Charging>
  0.0000

> <r_epik_Ionization_Penalty_Neutral>
  0.0000

> <r_epik_State_Penalty>
  0.0000

> <i_epik_Tot_Q>
0

> <r_epik_Metal_State_Penalty>
  0.0000

> <b_epik_Metal_Only>
0

> <s_m_entry_id>
4746

> <s_canvas_Unique_SMILES_Stereo>
O=c1n(C)cnc(c12)[nH]cc2

$$$$
Schrodinger_fragment_286
                    3D
 Structure written by MMmdl.
 23 24  0  0  1  0            999 V2000
    0.9185   -2.9764   -0.0694 C   0  0  0  0  0  0
    1.2640   -1.9509   -0.8592 N   0  5  0  0  0  0
    1.9712   -3.4512    0.5753 N   0  0  0  0  0  0
    3.1774   -2.7205    0.2334 C   0  0  0  0  0  0
    2.5833   -1.7050   -0.7640 C   0  0  0  0  0  0
    3.7816   -2.0497    1.4914 C   0  0  0  0  0  0
    5.1527   -1.3973    1.2115 C   0  0  0  0  0  0
    5.5801   -2.9719   -0.6460 C   0  0  0  0  0  0
    4.2199   -3.6647   -0.4139 C   0  0  0  0  0  0
    3.2436   -0.8420   -1.3435 O   0  0  0  0  0  0
   -0.2024   -3.4538    0.0773 O   0  0  0  0  0  0
    1.9473   -4.2248    1.2256 H   0  0  0  0  0  0
    3.0992   -1.2934    1.8826 H   0  0  0  0  0  0
    3.8933   -2.7898    2.2846 H   0  0  0  0  0  0
    5.0440   -0.5330    0.5558 H   0  0  0  0  0  0
    5.5820   -1.0209    2.1406 H   0  0  0  0  0  0
    6.3079   -3.6955   -1.0145 H   0  0  0  0  0  0
    5.4979   -2.2052   -1.4168 H   0  0  0  0  0  0
    4.3680   -4.5390    0.2209 H   0  0  0  0  0  0
    3.8464   -4.0465   -1.3655 H   0  0  0  0  0  0
    6.0943   -2.3610    0.5998 N   0  3  0  0  0  0
    6.9577   -1.8832    0.3935 H   0  0  0  0  0  0
    6.3129   -3.0858    1.2645 H   0  0  0  0  0  0
  1  2  1  0  0  0
  1  3  1  0  0  0
  1 11  2  0  0  0
  2  5  1  0  0  0
  3  4  1  0  0  0
  3 12  1  0  0  0
  4  5  1  0  0  0
  4  6  1  0  0  0
  4  9  1  0  0  0
  5 10  2  0  0  0
  6  7  1  0  0  0
  6 13  1  0  0  0
  6 14  1  0  0  0
  7 15  1  0  0  0
  7 16  1  0  0  0
  7 21  1  0  0  0
  8  9  1  0  0  0
  8 17  1  0  0  0
  8 18  1  0  0  0
  8 21  1  0  0  0
  9 19  1  0  0  0
  9 20  1  0  0  0
 21 22  1  0  0  0
 21 23  1  0  0  0
M  CHG  2   2  -1  21   1
M  END
> <s_m_entry_name>
Schrodinger_fragment_347

> <i_m_number_of_atoms>
24

> <r_m_molecular_weight>
170.19259

> <s_m_molecular_formula>
C7H12N3O2

> <r_epik_Ionization_Penalty>
  0.1916

> <r_epik_Ionization_Penalty_Charging>
  0.1916

> <r_epik_Ionization_Penalty_Neutral>
  0.0000

> <r_epik_State_Penalty>
  0.1961

> <i_epik_Tot_Q>
0

> <r_epik_Metal_State_Penalty>
  0.1487

> <b_epik_Metal_Only>
0

> <s_m_entry_id>
4747

> <s_canvas_Unique_SMILES_Stereo>
N1C(=O)[N-]C(=O)C12CC[NH2+]CC2

$$$$
Schrodinger_fragment_286_a
                    3D
 Structure written by MMmdl.
 24 25  0  0  1  0            999 V2000
    0.8865   -2.9832   -0.0713 C   0  0  0  0  0  0
    1.2754   -1.9706   -0.8402 N   0  0  0  0  0  0
    1.9579   -3.4524    0.5731 N   0  0  0  0  0  0
    3.1789   -2.7290    0.2408 C   0  0  0  0  0  0
    2.5748   -1.7280   -0.7468 C   0  0  0  0  0  0
    3.7860   -2.0506    1.4930 C   0  0  0  0  0  0
    5.1546   -1.3926    1.2084 C   0  0  0  0  0  0
    5.5822   -2.9677   -0.6495 C   0  0  0  0  0  0
    4.2244   -3.6656   -0.4121 C   0  0  0  0  0  0
    3.2003   -0.8515   -1.3459 O   0  0  0  0  0  0
   -0.2607   -3.4154    0.0310 O   0  0  0  0  0  0
    0.6489   -1.4462   -1.4290 H   0  0  0  0  0  0
    1.9226   -4.2265    1.2212 H   0  0  0  0  0  0
    3.1027   -1.2974    1.8890 H   0  0  0  0  0  0
    3.9039   -2.7896    2.2864 H   0  0  0  0  0  0
    5.0405   -0.5289    0.5523 H   0  0  0  0  0  0
    5.5856   -1.0140    2.1358 H   0  0  0  0  0  0
    6.3119   -3.6890   -1.0193 H   0  0  0  0  0  0
    5.4949   -2.2021   -1.4212 H   0  0  0  0  0  0
    4.3786   -4.5385    0.2234 H   0  0  0  0  0  0
    3.8508   -4.0530   -1.3615 H   0  0  0  0  0  0
    6.0976   -2.3531    0.5939 N   0  3  0  0  0  0
    6.9596   -1.8732    0.3854 H   0  0  0  0  0  0
    6.3213   -3.0765    1.2587 H   0  0  0  0  0  0
  1  2  1  0  0  0
  1  3  1  0  0  0
  1 11  2  0  0  0
  2  5  1  0  0  0
  2 12  1  0  0  0
  3  4  1  0  0  0
  3 13  1  0  0  0
  4  5  1  0  0  0
  4  6  1  0  0  0
  4  9  1  0  0  0
  5 10  2  0  0  0
  6  7  1  0  0  0
  6 14  1  0  0  0
  6 15  1  0  0  0
  7 16  1  0  0  0
  7 17  1  0  0  0
  7 22  1  0  0  0
  8  9  1  0  0  0
  8 18  1  0  0  0
  8 19  1  0  0  0
  8 22  1  0  0  0
  9 20  1  0  0  0
  9 21  1  0  0  0
 22 23  1  0  0  0
 22 24  1  0  0  0
M  CHG  1  22   1
M  END
> <s_m_entry_name>
Schrodinger_fragment_347

> <i_m_number_of_atoms>
24

> <r_m_molecular_weight>
170.19259

> <s_m_molecular_formula>
C7H12N3O2

> <r_epik_Ionization_Penalty>
  0.7984

> <r_epik_Ionization_Penalty_Charging>
  0.0053

> <r_epik_Ionization_Penalty_Neutral>
  0.7931

> <r_epik_State_Penalty>
  0.7752

> <i_epik_Tot_Q>
1

> <r_epik_Metal_State_Penalty>
  3.1302

> <b_epik_Metal_Only>
0

> <s_m_entry_id>
4748

> <s_canvas_Unique_SMILES_Stereo>
N1C(=O)NC(=O)C12CC[NH2+]CC2

$$$$
Schrodinger_fragment_286_b
                    3D
 Structure written by MMmdl.
 23 24  0  0  1  0            999 V2000
    0.9555   -3.0103   -0.0325 C   0  0  0  0  0  0
    1.2755   -1.9694   -0.8413 N   0  0  0  0  0  0
    1.9648   -3.4857    0.6028 N   0  0  0  0  0  0
    3.1745   -2.7345    0.2444 C   0  0  0  0  0  0
    2.5687   -1.7276   -0.7486 C   0  0  0  0  0  0
    3.7809   -2.0562    1.4958 C   0  0  0  0  0  0
    5.1451   -1.3932    1.2056 C   0  0  0  0  0  0
    5.5725   -2.9673   -0.6510 C   0  0  0  0  0  0
    4.2192   -3.6705   -0.4084 C   0  0  0  0  0  0
    3.1869   -0.8501   -1.3502 O   0  0  0  0  0  0
   -0.2497   -3.2627   -0.0960 O   0  5  0  0  0  0
    0.6197   -1.4637   -1.4209 H   0  0  0  0  0  0
    3.0964   -1.3043    1.8921 H   0  0  0  0  0  0
    3.9057   -2.7936    2.2899 H   0  0  0  0  0  0
    5.0238   -0.5327    0.5470 H   0  0  0  0  0  0
    5.5771   -1.0101    2.1306 H   0  0  0  0  0  0
    6.3034   -3.6851   -1.0245 H   0  0  0  0  0  0
    5.4770   -2.2014   -1.4212 H   0  0  0  0  0  0
    4.3804   -4.5422    0.2273 H   0  0  0  0  0  0
    3.8442   -4.0586   -1.3571 H   0  0  0  0  0  0
    6.0900   -2.3513    0.5906 N   0  3  0  0  0  0
    6.9507   -1.8701    0.3808 H   0  0  0  0  0  0
    6.3130   -3.0747    1.2553 H   0  0  0  0  0  0
  1  2  1  0  0  0
  1  3  2  0  0  0
  1 11  1  0  0  0
  2  5  1  0  0  0
  2 12  1  0  0  0
  3  4  1  0  0  0
  4  5  1  0  0  0
  4  6  1  0  0  0
  4  9  1  0  0  0
  5 10  2  0  0  0
  6  7  1  0  0  0
  6 13  1  0  0  0
  6 14  1  0  0  0
  7 15  1  0  0  0
  7 16  1  0  0  0
  7 21  1  0  0  0
  8  9  1  0  0  0
  8 17  1  0  0  0
  8 18  1  0  0  0
  8 21  1  0  0  0
  9 19  1  0  0  0
  9 20  1  0  0  0
 21 22  1  0  0  0
 21 23  1  0  0  0
M  CHG  2  11  -1  21   1
M  END
> <s_m_entry_name>
Schrodinger_fragment_347

> <i_m_number_of_atoms>
24

> <r_m_molecular_weight>
170.19259

> <s_m_molecular_formula>
C7H12N3O2

> <r_epik_Ionization_Penalty>
  1.8937

> <r_epik_Ionization_Penalty_Charging>
  1.8937

> <r_epik_Ionization_Penalty_Neutral>
  0.0000

> <r_epik_State_Penalty>
  2.6434

> <i_epik_Tot_Q>
0

> <r_epik_Metal_State_Penalty>
  0.9057

> <b_epik_Metal_Only>
0

> <s_m_entry_id>
4749

> <s_canvas_Unique_SMILES_Stereo>
N1=C([O-])NC(=O)C12CC[NH2+]CC2

$$$$
Schrodinger_fragment_287
                    3D
 Structure written by MMmdl.
 27 28  0  0  1  0            999 V2000
    0.7803   -2.3405   -1.0554 C   0  0  0  0  0  0
    1.2081   -3.2345   -0.1515 N   0  0  0  0  0  0
    1.8161   -1.5922   -1.4416 N   0  0  0  0  0  0
    3.0596   -1.9612   -0.7845 C   0  0  0  0  0  0
    2.5183   -3.1022    0.0801 C   0  0  0  0  0  0
    4.1181   -2.4302   -1.8135 C   0  0  0  0  0  0
    5.4996   -2.6917   -1.1722 C   0  0  0  0  0  0
    5.0158   -1.0855    0.6451 C   0  0  0  0  0  0
    3.6222   -0.7834    0.0496 C   0  0  0  0  0  0
    3.2042   -3.7737    0.8564 O   0  0  0  0  0  0
   -0.3736   -2.2175   -1.4706 O   0  0  0  0  0  0
    0.3369   -4.2211    0.4904 C   0  0  0  0  0  0
    1.7389   -0.8481   -2.1198 H   0  0  0  0  0  0
    3.7832   -3.3362   -2.3215 H   0  0  0  0  0  0
    4.2255   -1.6764   -2.5945 H   0  0  0  0  0  0
    5.4647   -3.5629   -0.5173 H   0  0  0  0  0  0
    6.2314   -2.9240   -1.9467 H   0  0  0  0  0  0
    5.4100   -0.1967    1.1391 H   0  0  0  0  0  0
    4.9506   -1.8558    1.4143 H   0  0  0  0  0  0
    3.6884    0.1071   -0.5766 H   0  0  0  0  0  0
    2.9367   -0.5253    0.8587 H   0  0  0  0  0  0
    0.8765   -4.8666    1.1850 H   0  0  0  0  0  0
   -0.1312   -4.8600   -0.2597 H   0  0  0  0  0  0
   -0.4551   -3.7210    1.0496 H   0  0  0  0  0  0
    5.9677   -1.5183   -0.4019 N   0  3  0  0  0  0
    6.8476   -1.7470    0.0345 H   0  0  0  0  0  0
    6.1467   -0.7521   -1.0314 H   0  0  0  0  0  0
  1  2  1  0  0  0
  1  3  1  0  0  0
  1 11  2  0  0  0
  2  5  1  0  0  0
  2 12  1  0  0  0
  3  4  1  0  0  0
  3 13  1  0  0  0
  4  5  1  0  0  0
  4  6  1  0  0  0
  4  9  1  0  0  0
  5 10  2  0  0  0
  6  7  1  0  0  0
  6 14  1  0  0  0
  6 15  1  0  0  0
  7 16  1  0  0  0
  7 17  1  0  0  0
  7 25  1  0  0  0
  8  9  1  0  0  0
  8 18  1  0  0  0
  8 19  1  0  0  0
  8 25  1  0  0  0
  9 20  1  0  0  0
  9 21  1  0  0  0
 12 22  1  0  0  0
 12 23  1  0  0  0
 12 24  1  0  0  0
 25 26  1  0  0  0
 25 27  1  0  0  0
M  CHG  1  25   1
M  END
> <s_m_entry_name>
Schrodinger_fragment_348

> <i_m_number_of_atoms>
27

> <r_m_molecular_weight>
184.21968

> <s_m_molecular_formula>
C8H14N3O2

> <r_epik_Ionization_Penalty>
  0.0322

> <r_epik_Ionization_Penalty_Charging>
  0.0074

> <r_epik_Ionization_Penalty_Neutral>
  0.0248

> <r_epik_State_Penalty>
  0.0248

> <i_epik_Tot_Q>
1

> <r_epik_Metal_State_Penalty>
  2.2382

> <b_epik_Metal_Only>
0

> <s_m_entry_id>
4750

> <s_canvas_Unique_SMILES_Stereo>
N1C(=O)N(C)C(=O)C12CC[NH2+]CC2

$$$$
Schrodinger_fragment_287_a
                    3D
 Structure written by MMmdl.
 26 27  0  0  1  0            999 V2000
    0.8430   -2.2990   -1.0742 C   0  0  0  0  0  0
    1.2207   -3.2442   -0.1393 N   0  0  0  0  0  0
    1.8214   -1.5633   -1.4647 N   0  0  0  0  0  0
    3.0569   -1.9613   -0.7849 C   0  0  0  0  0  0
    2.5227   -3.1098    0.0876 C   0  0  0  0  0  0
    4.1126   -2.4280   -1.8158 C   0  0  0  0  0  0
    5.4924   -2.6913   -1.1736 C   0  0  0  0  0  0
    5.0093   -1.0867    0.6430 C   0  0  0  0  0  0
    3.6173   -0.7827    0.0469 C   0  0  0  0  0  0
    3.2064   -3.7817    0.8630 O   0  0  0  0  0  0
   -0.3602   -2.3377   -1.3589 O   0  5  0  0  0  0
    0.3198   -4.2228    0.4877 C   0  0  0  0  0  0
    3.7768   -3.3344   -2.3227 H   0  0  0  0  0  0
    4.2227   -1.6740   -2.5964 H   0  0  0  0  0  0
    5.4538   -3.5615   -0.5178 H   0  0  0  0  0  0
    6.2242   -2.9260   -1.9472 H   0  0  0  0  0  0
    5.4033   -0.1995    1.1396 H   0  0  0  0  0  0
    4.9412   -1.8591    1.4096 H   0  0  0  0  0  0
    3.6861    0.1086   -0.5783 H   0  0  0  0  0  0
    2.9315   -0.5263    0.8563 H   0  0  0  0  0  0
    0.8460   -4.8707    1.1901 H   0  0  0  0  0  0
   -0.1397   -4.8616   -0.2678 H   0  0  0  0  0  0
   -0.4738   -3.7161    1.0383 H   0  0  0  0  0  0
    5.9614   -1.5181   -0.4040 N   0  3  0  0  0  0
    6.8422   -1.7454    0.0310 H   0  0  0  0  0  0
    6.1353   -0.7518   -1.0345 H   0  0  0  0  0  0
  1  2  1  0  0  0
  1  3  2  0  0  0
  1 11  1  0  0  0
  2  5  1  0  0  0
  2 12  1  0  0  0
  3  4  1  0  0  0
  4  5  1  0  0  0
  4  6  1  0  0  0
  4  9  1  0  0  0
  5 10  2  0  0  0
  6  7  1  0  0  0
  6 13  1  0  0  0
  6 14  1  0  0  0
  7 15  1  0  0  0
  7 16  1  0  0  0
  7 24  1  0  0  0
  8  9  1  0  0  0
  8 17  1  0  0  0
  8 18  1  0  0  0
  8 24  1  0  0  0
  9 19  1  0  0  0
  9 20  1  0  0  0
 12 21  1  0  0  0
 12 22  1  0  0  0
 12 23  1  0  0  0
 24 25  1  0  0  0
 24 26  1  0  0  0
M  CHG  2  11  -1  24   1
M  END
> <s_m_entry_name>
Schrodinger_fragment_348

> <i_m_number_of_atoms>
27

> <r_m_molecular_weight>
184.21968

> <s_m_molecular_formula>
C8H14N3O2

> <r_epik_Ionization_Penalty>
  1.8941

> <r_epik_Ionization_Penalty_Charging>
  1.8941

> <r_epik_Ionization_Penalty_Neutral>
  0.0000

> <r_epik_State_Penalty>
  1.8930

> <i_epik_Tot_Q>
0

> <r_epik_Metal_State_Penalty>
  0.0137

> <b_epik_Metal_Only>
0

> <s_m_entry_id>
4751

> <s_canvas_Unique_SMILES_Stereo>
N1=C([O-])N(C)C(=O)C12CC[NH2+]CC2

$$$$
Schrodinger_fragment_288
                    3D
 Structure written by MMmdl.
 30 31  0  0  1  0            999 V2000
    0.9019   -2.9394   -0.0730 C   0  0  0  0  0  0
    1.3767   -3.0377   -1.3236 N   0  0  0  0  0  0
    1.8856   -2.5051    0.7365 N   0  0  0  0  0  0
    3.1372   -2.2787    0.0149 C   0  0  0  0  0  0
    2.6629   -2.6861   -1.3815 C   0  0  0  0  0  0
    3.5762   -0.7924    0.0547 C   0  0  0  0  0  0
    4.8809   -0.5189   -0.7374 C   0  0  0  0  0  0
    5.6836   -2.5408    0.4799 C   0  0  0  0  0  0
    4.2861   -3.2057    0.5152 C   0  0  0  0  0  0
    3.3905   -2.6944   -2.3805 O   0  0  0  0  0  0
   -0.2511   -3.2023    0.2825 O   0  0  0  0  0  0
    0.5865   -3.4975   -2.4681 C   0  0  0  0  0  0
    1.7377   -2.2410    2.1682 C   0  0  0  0  0  0
    2.7844   -0.1400   -0.3170 H   0  0  0  0  0  0
    3.7324   -0.4931    1.0914 H   0  0  0  0  0  0
    4.6599   -0.3104   -1.7850 H   0  0  0  0  0  0
    5.3555    0.3818   -0.3463 H   0  0  0  0  0  0
    5.8390   -1.9592    1.3902 H   0  0  0  0  0  0
    6.4632   -3.3034    0.4706 H   0  0  0  0  0  0
    4.0994   -3.5498    1.5325 H   0  0  0  0  0  0
    4.3199   -4.1201   -0.0802 H   0  0  0  0  0  0
    1.0442   -3.2254   -3.4206 H   0  0  0  0  0  0
   -0.4142   -3.0626   -2.4521 H   0  0  0  0  0  0
    0.4832   -4.5830   -2.4424 H   0  0  0  0  0  0
    2.6828   -1.9616    2.6341 H   0  0  0  0  0  0
    1.3616   -3.1259    2.6838 H   0  0  0  0  0  0
    1.0299   -1.4275    2.3332 H   0  0  0  0  0  0
    5.8504   -1.6413   -0.6817 N   0  3  0  0  0  0
    5.7674   -2.1836   -1.5282 H   0  0  0  0  0  0
    6.7841   -1.2603   -0.6776 H   0  0  0  0  0  0
  1  2  1  0  0  0
  1  3  1  0  0  0
  1 11  2  0  0  0
  2  5  1  0  0  0
  2 12  1  0  0  0
  3  4  1  0  0  0
  3 13  1  0  0  0
  4  5  1  0  0  0
  4  6  1  0  0  0
  4  9  1  0  0  0
  5 10  2  0  0  0
  6  7  1  0  0  0
  6 14  1  0  0  0
  6 15  1  0  0  0
  7 16  1  0  0  0
  7 17  1  0  0  0
  7 28  1  0  0  0
  8  9  1  0  0  0
  8 18  1  0  0  0
  8 19  1  0  0  0
  8 28  1  0  0  0
  9 20  1  0  0  0
  9 21  1  0  0  0
 12 22  1  0  0  0
 12 23  1  0  0  0
 12 24  1  0  0  0
 13 25  1  0  0  0
 13 26  1  0  0  0
 13 27  1  0  0  0
 28 29  1  0  0  0
 28 30  1  0  0  0
M  CHG  1  28   1
M  END
> <s_m_entry_name>
Schrodinger_fragment_349

> <i_m_number_of_atoms>
30

> <r_m_molecular_weight>
198.24677

> <s_m_molecular_formula>
C9H16N3O2

> <r_epik_Ionization_Penalty>
  0.0082

> <r_epik_Ionization_Penalty_Charging>
  0.0082

> <r_epik_Ionization_Penalty_Neutral>
  0.0000

> <r_epik_State_Penalty>
  0.0000

> <i_epik_Tot_Q>
1

> <r_epik_Metal_State_Penalty>
  0.0000

> <b_epik_Metal_Only>
0

> <s_m_entry_id>
4752

> <s_canvas_Unique_SMILES_Stereo>
CN1C(=O)N(C)C(=O)C12CC[NH2+]CC2

$$$$
Schrodinger_fragment_289
                    3D
 Structure written by MMmdl.
 33 34  0  0  1  0            999 V2000
    0.9892   -3.1924    0.2579 C   0  0  0  0  0  0
    1.5769   -3.4721    1.4301 N   0  0  0  0  0  0
    1.8730   -2.5629   -0.5382 N   0  0  0  0  0  0
    3.1719   -2.3849    0.1117 C   0  0  1  0  0  0
    2.8425   -3.0474    1.4527 C   0  0  0  0  0  0
    4.3044   -3.1218   -0.6494 C   0  0  0  0  0  0
    5.7044   -2.8484   -0.0581 C   0  0  0  0  0  0
    4.9594   -0.6703    0.8345 C   0  0  0  0  0  0
    3.5397   -0.8864    0.2668 C   0  0  0  0  0  0
    3.6396   -3.1580    2.3896 O   0  0  0  0  0  0
   -0.1760   -3.4668   -0.0456 O   0  0  0  0  0  0
    0.9012   -4.1566    2.5353 C   0  0  0  0  0  0
    1.5852   -2.1025   -1.8978 C   0  0  0  0  0  0
    7.3597   -1.1193    0.5189 C   0  0  0  0  0  0
    4.1218   -4.1976   -0.6530 H   0  0  0  0  0  0
    4.3070   -2.8235   -1.6976 H   0  0  0  0  0  0
    5.8066   -3.3099    0.9249 H   0  0  0  0  0  0
    6.4566   -3.3209   -0.6914 H   0  0  0  0  0  0
    5.1848    0.3972    0.8322 H   0  0  0  0  0  0
    5.0117   -0.9859    1.8772 H   0  0  0  0  0  0
    3.4719   -0.3822   -0.6970 H   0  0  0  0  0  0
    2.8168   -0.3827    0.9106 H   0  0  0  0  0  0
    1.5523   -4.3027    3.3986 H   0  0  0  0  0  0
    0.5498   -5.1390    2.2164 H   0  0  0  0  0  0
    0.0361   -3.5805    2.8668 H   0  0  0  0  0  0
    2.4420   -1.6191   -2.3660 H   0  0  0  0  0  0
    0.7631   -1.3853   -1.8898 H   0  0  0  0  0  0
    1.2923   -2.9426   -2.5293 H   0  0  0  0  0  0
    7.5688   -0.0492    0.5130 H   0  0  0  0  0  0
    8.0991   -1.6001   -0.1223 H   0  0  0  0  0  0
    7.5048   -1.4862    1.5356 H   0  0  0  0  0  0
    5.9860   -1.3927    0.0397 N   0  3  1  0  0  0
    5.9501   -1.0205   -0.8985 H   0  0  0  0  0  0
  1  2  1  0  0  0
  1  3  1  0  0  0
  1 11  2  0  0  0
  2  5  1  0  0  0
  2 12  1  0  0  0
  3  4  1  0  0  0
  3 13  1  0  0  0
  4  5  1  0  0  0
  4  6  1  0  0  0
  4  9  1  0  0  0
  5 10  2  0  0  0
  6  7  1  0  0  0
  6 15  1  0  0  0
  6 16  1  0  0  0
  7 17  1  0  0  0
  7 18  1  0  0  0
  7 32  1  0  0  0
  8  9  1  0  0  0
  8 19  1  0  0  0
  8 20  1  0  0  0
  8 32  1  0  0  0
  9 21  1  0  0  0
  9 22  1  0  0  0
 12 23  1  0  0  0
 12 24  1  0  0  0
 12 25  1  0  0  0
 13 26  1  0  0  0
 13 27  1  0  0  0
 13 28  1  0  0  0
 14 29  1  0  0  0
 14 30  1  0  0  0
 14 31  1  0  0  0
 14 32  1  0  0  0
 32 33  1  0  0  0
M  CHG  1  32   1
M  END
> <s_m_entry_name>
Schrodinger_fragment_350

> <i_m_number_of_atoms>
33

> <r_m_molecular_weight>
212.27386

> <s_m_molecular_formula>
C10H18N3O2

> <r_epik_Ionization_Penalty>
  0.0006

> <r_epik_Ionization_Penalty_Charging>
  0.0006

> <r_epik_Ionization_Penalty_Neutral>
  0.0000

> <r_epik_State_Penalty>
  0.0000

> <i_epik_Tot_Q>
1

> <r_epik_Metal_State_Penalty>
  0.0000

> <b_epik_Metal_Only>
0

> <s_m_entry_id>
4753

> <s_canvas_Unique_SMILES_Stereo>
CN1C(=O)N(C)C(=O)C12CC[NH+](C)CC2

$$$$
Schrodinger_fragment_290
                    3D
 Structure written by MMmdl.
 29 30  0  0  1  0            999 V2000
    1.1311   -2.4485   -0.9631 C   0  0  0  0  0  0
    1.7953   -1.5176   -1.6626 N   0  5  0  0  0  0
    1.9366   -3.0572   -0.0853 N   0  0  0  0  0  0
    3.2898   -2.5132   -0.1662 C   0  0  1  0  0  0
    3.0807   -1.4653   -1.2785 C   0  0  0  0  0  0
    3.7182   -1.8670    1.1771 C   0  0  0  0  0  0
    5.1929   -1.4137    1.1772 C   0  0  0  0  0  0
    5.7712   -3.1051   -0.5244 C   0  0  0  0  0  0
    4.3128   -3.6059   -0.5726 C   0  0  0  0  0  0
    3.9726   -0.7311   -1.7057 O   0  0  0  0  0  0
   -0.0620   -2.7314   -1.0868 O   0  0  0  0  0  0
    1.5431   -4.1223    0.8392 C   0  0  0  0  0  0
    7.5309   -2.1317    0.8959 C   0  0  0  0  0  0
    3.0806   -1.0107    1.4024 H   0  0  0  0  0  0
    3.5702   -2.5673    1.9986 H   0  0  0  0  0  0
    5.3393   -0.5699    0.5022 H   0  0  0  0  0  0
    5.4534   -1.0516    2.1727 H   0  0  0  0  0  0
    6.4410   -3.9404   -0.7333 H   0  0  0  0  0  0
    5.9545   -2.3691   -1.3077 H   0  0  0  0  0  0
    4.2216   -4.4724    0.0816 H   0  0  0  0  0  0
    4.0929   -3.9716   -1.5769 H   0  0  0  0  0  0
    2.3705   -4.4653    1.4587 H   0  0  0  0  0  0
    1.1627   -4.9802    0.2837 H   0  0  0  0  0  0
    0.7518   -3.7709    1.5021 H   0  0  0  0  0  0
    8.1825   -2.9803    0.6860 H   0  0  0  0  0  0
    7.7705   -1.7753    1.8980 H   0  0  0  0  0  0
    7.7710   -1.3376    0.1880 H   0  0  0  0  0  0
    6.1067   -2.5224    0.8002 N   0  3  1  0  0  0
    5.9789   -3.2540    1.4840 H   0  0  0  0  0  0
  1  2  1  0  0  0
  1  3  1  0  0  0
  1 11  2  0  0  0
  2  5  1  0  0  0
  3  4  1  0  0  0
  3 12  1  0  0  0
  4  5  1  0  0  0
  4  6  1  0  0  0
  4  9  1  0  0  0
  5 10  2  0  0  0
  6  7  1  0  0  0
  6 14  1  0  0  0
  6 15  1  0  0  0
  7 16  1  0  0  0
  7 17  1  0  0  0
  7 28  1  0  0  0
  8  9  1  0  0  0
  8 18  1  0  0  0
  8 19  1  0  0  0
  8 28  1  0  0  0
  9 20  1  0  0  0
  9 21  1  0  0  0
 12 22  1  0  0  0
 12 23  1  0  0  0
 12 24  1  0  0  0
 13 25  1  0  0  0
 13 26  1  0  0  0
 13 27  1  0  0  0
 13 28  1  0  0  0
 28 29  1  0  0  0
M  CHG  2   2  -1  28   1
M  END
> <s_m_entry_name>
Schrodinger_fragment_351

> <i_m_number_of_atoms>
30

> <r_m_molecular_weight>
198.24677

> <s_m_molecular_formula>
C9H16N3O2

> <r_epik_Ionization_Penalty>
  0.1529

> <r_epik_Ionization_Penalty_Charging>
  0.1529

> <r_epik_Ionization_Penalty_Neutral>
  0.0000

> <r_epik_State_Penalty>
  0.1528

> <i_epik_Tot_Q>
0

> <r_epik_Metal_State_Penalty>
  0.0002

> <b_epik_Metal_Only>
0

> <s_m_entry_id>
4754

> <s_canvas_Unique_SMILES_Stereo>
CN1C(=O)[N-]C(=O)C12CC[NH+](C)CC2

$$$$
Schrodinger_fragment_290_a
                    3D
 Structure written by MMmdl.
 30 31  0  0  1  0            999 V2000
    1.1062   -2.4512   -0.9705 C   0  0  0  0  0  0
    1.8040   -1.5400   -1.6394 N   0  0  0  0  0  0
    1.9259   -3.0560   -0.0910 N   0  0  0  0  0  0
    3.2909   -2.5238   -0.1561 C   0  0  1  0  0  0
    3.0709   -1.4872   -1.2618 C   0  0  0  0  0  0
    3.7223   -1.8750    1.1835 C   0  0  0  0  0  0
    5.1959   -1.4147    1.1797 C   0  0  0  0  0  0
    5.7748   -3.1071   -0.5220 C   0  0  0  0  0  0
    4.3164   -3.6121   -0.5633 C   0  0  0  0  0  0
    3.9352   -0.7347   -1.7165 O   0  0  0  0  0  0
   -0.0909   -2.6947   -1.1346 O   0  0  0  0  0  0
    1.5200   -4.1192    0.8283 C   0  0  0  0  0  0
    7.5377   -2.1150    0.8819 C   0  0  0  0  0  0
    1.4083   -0.9544   -2.3559 H   0  0  0  0  0  0
    3.0816   -1.0227    1.4155 H   0  0  0  0  0  0
    3.5801   -2.5787    2.0034 H   0  0  0  0  0  0
    5.3354   -0.5695    0.5046 H   0  0  0  0  0  0
    5.4580   -1.0517    2.1745 H   0  0  0  0  0  0
    6.4463   -3.9412   -0.7308 H   0  0  0  0  0  0
    5.9525   -2.3735   -1.3093 H   0  0  0  0  0  0
    4.2287   -4.4750    0.0964 H   0  0  0  0  0  0
    4.0951   -3.9858   -1.5644 H   0  0  0  0  0  0
    2.3424   -4.4678    1.4521 H   0  0  0  0  0  0
    1.1381   -4.9765    0.2721 H   0  0  0  0  0  0
    0.7273   -3.7668    1.4897 H   0  0  0  0  0  0
    8.1948   -2.9588    0.6696 H   0  0  0  0  0  0
    7.7826   -1.7536    1.8811 H   0  0  0  0  0  0
    7.7667   -1.3211    0.1700 H   0  0  0  0  0  0
    6.1157   -2.5177    0.7986 N   0  3  1  0  0  0
    6.0025   -3.2482    1.4867 H   0  0  0  0  0  0
  1  2  1  0  0  0
  1  3  1  0  0  0
  1 11  2  0  0  0
  2  5  1  0  0  0
  2 14  1  0  0  0
  3  4  1  0  0  0
  3 12  1  0  0  0
  4  5  1  0  0  0
  4  6  1  0  0  0
  4  9  1  0  0  0
  5 10  2  0  0  0
  6  7  1  0  0  0
  6 15  1  0  0  0
  6 16  1  0  0  0
  7 17  1  0  0  0
  7 18  1  0  0  0
  7 29  1  0  0  0
  8  9  1  0  0  0
  8 19  1  0  0  0
  8 20  1  0  0  0
  8 29  1  0  0  0
  9 21  1  0  0  0
  9 22  1  0  0  0
 12 23  1  0  0  0
 12 24  1  0  0  0
 12 25  1  0  0  0
 13 26  1  0  0  0
 13 27  1  0  0  0
 13 28  1  0  0  0
 13 29  1  0  0  0
 29 30  1  0  0  0
M  CHG  1  29   1
M  END
> <s_m_entry_name>
Schrodinger_fragment_351

> <i_m_number_of_atoms>
30

> <r_m_molecular_weight>
198.24677

> <s_m_molecular_formula>
C9H16N3O2

> <r_epik_Ionization_Penalty>
  0.8782

> <r_epik_Ionization_Penalty_Charging>
  0.0004

> <r_epik_Ionization_Penalty_Neutral>
  0.8778

> <r_epik_State_Penalty>
  0.8778

> <i_epik_Tot_Q>
1

> <r_epik_Metal_State_Penalty>
  4.8180

> <b_epik_Metal_Only>
0

> <s_m_entry_id>
4755

> <s_canvas_Unique_SMILES_Stereo>
CN1C(=O)NC(=O)C12CC[NH+](C)CC2

$$$$
Schrodinger_fragment_291
                    3D
 Structure written by MMmdl.
 26 27  0  0  1  0            999 V2000
    0.9543   -2.8491   -0.0733 C   0  0  0  0  0  0
    1.3584   -1.8208   -0.8310 N   0  5  0  0  0  0
    1.9795   -3.4118    0.5447 N   0  0  0  0  0  0
    3.2268   -2.7475    0.2166 C   0  0  1  0  0  0
    2.6913   -1.6625   -0.7402 C   0  0  0  0  0  0
    3.8825   -2.1639    1.4897 C   0  0  0  0  0  0
    5.2889   -1.5895    1.2200 C   0  0  0  0  0  0
    5.6017   -3.1201   -0.6901 C   0  0  0  0  0  0
    4.2029   -3.7324   -0.4683 C   0  0  0  0  0  0
    3.4014   -0.8238   -1.2961 O   0  0  0  0  0  0
   -0.1936   -3.2594    0.0679 O   0  0  0  0  0  0
    7.5551   -2.0853    0.3945 C   0  0  0  0  0  0
    1.9110   -4.2045    1.1683 H   0  0  0  0  0  0
    3.2527   -1.3806    1.9145 H   0  0  0  0  0  0
    3.9530   -2.9376    2.2551 H   0  0  0  0  0  0
    5.2266   -0.6971    0.5963 H   0  0  0  0  0  0
    5.7304   -1.2688    2.1645 H   0  0  0  0  0  0
    6.2646   -3.8840   -1.0986 H   0  0  0  0  0  0
    5.5596   -2.3254   -1.4357 H   0  0  0  0  0  0
    4.2993   -4.6350    0.1361 H   0  0  0  0  0  0
    3.7997   -4.0580   -1.4286 H   0  0  0  0  0  0
    8.2042   -2.8604   -0.0138 H   0  0  0  0  0  0
    7.9813   -1.7700    1.3472 H   0  0  0  0  0  0
    7.5780   -1.2325   -0.2849 H   0  0  0  0  0  0
    6.1758   -2.5911    0.5739 N   0  3  1  0  0  0
    6.2536   -3.3704    1.2112 H   0  0  0  0  0  0
  1  2  1  0  0  0
  1  3  1  0  0  0
  1 11  2  0  0  0
  2  5  1  0  0  0
  3  4  1  0  0  0
  3 13  1  0  0  0
  4  5  1  0  0  0
  4  6  1  0  0  0
  4  9  1  0  0  0
  5 10  2  0  0  0
  6  7  1  0  0  0
  6 14  1  0  0  0
  6 15  1  0  0  0
  7 16  1  0  0  0
  7 17  1  0  0  0
  7 25  1  0  0  0
  8  9  1  0  0  0
  8 18  1  0  0  0
  8 19  1  0  0  0
  8 25  1  0  0  0
  9 20  1  0  0  0
  9 21  1  0  0  0
 12 22  1  0  0  0
 12 23  1  0  0  0
 12 24  1  0  0  0
 12 25  1  0  0  0
 25 26  1  0  0  0
M  CHG  2   2  -1  25   1
M  END
> <s_m_entry_name>
Schrodinger_fragment_352

> <i_m_number_of_atoms>
27

> <r_m_molecular_weight>
184.21968

> <s_m_molecular_formula>
C8H14N3O2

> <r_epik_Ionization_Penalty>
  0.1529

> <r_epik_Ionization_Penalty_Charging>
  0.1529

> <r_epik_Ionization_Penalty_Neutral>
  0.0000

> <r_epik_State_Penalty>
  0.1605

> <i_epik_Tot_Q>
0

> <r_epik_Metal_State_Penalty>
  0.1277

> <b_epik_Metal_Only>
0

> <s_m_entry_id>
4756

> <s_canvas_Unique_SMILES_Stereo>
C1C[NH+](C)CCC12C(=O)[N-]C(=O)N2

$$$$
Schrodinger_fragment_291_a
                    3D
 Structure written by MMmdl.
 27 28  0  0  1  0            999 V2000
    0.9217   -2.8519   -0.0777 C   0  0  0  0  0  0
    1.3710   -1.8406   -0.8148 N   0  0  0  0  0  0
    1.9643   -3.4118    0.5413 N   0  0  0  0  0  0
    3.2273   -2.7579    0.2242 C   0  0  1  0  0  0
    2.6840   -1.6862   -0.7239 C   0  0  0  0  0  0
    3.8858   -2.1678    1.4926 C   0  0  0  0  0  0
    5.2906   -1.5885    1.2197 C   0  0  0  0  0  0
    5.6039   -3.1200   -0.6905 C   0  0  0  0  0  0
    4.2066   -3.7365   -0.4644 C   0  0  0  0  0  0
    3.3621   -0.8323   -1.2977 O   0  0  0  0  0  0
   -0.2505   -3.2119    0.0194 O   0  0  0  0  0  0
    7.5563   -2.0753    0.3870 C   0  0  0  0  0  0
    0.7764   -1.2566   -1.3800 H   0  0  0  0  0  0
    1.8822   -4.2040    1.1628 H   0  0  0  0  0  0
    3.2551   -1.3873    1.9218 H   0  0  0  0  0  0
    3.9611   -2.9411    2.2580 H   0  0  0  0  0  0
    5.2239   -0.6958    0.5964 H   0  0  0  0  0  0
    5.7334   -1.2665    2.1633 H   0  0  0  0  0  0
    6.2686   -3.8824   -1.0993 H   0  0  0  0  0  0
    5.5577   -2.3265   -1.4376 H   0  0  0  0  0  0
    4.3081   -4.6377    0.1414 H   0  0  0  0  0  0
    3.8036   -4.0681   -1.4228 H   0  0  0  0  0  0
    8.2075   -2.8481   -0.0223 H   0  0  0  0  0  0
    7.9843   -1.7573    1.3381 H   0  0  0  0  0  0
    7.5742   -1.2231   -0.2934 H   0  0  0  0  0  0
    6.1795   -2.5867    0.5711 N   0  3  1  0  0  0
    6.2638   -3.3651    1.2090 H   0  0  0  0  0  0
  1  2  1  0  0  0
  1  3  1  0  0  0
  1 11  2  0  0  0
  2  5  1  0  0  0
  2 13  1  0  0  0
  3  4  1  0  0  0
  3 14  1  0  0  0
  4  5  1  0  0  0
  4  6  1  0  0  0
  4  9  1  0  0  0
  5 10  2  0  0  0
  6  7  1  0  0  0
  6 15  1  0  0  0
  6 16  1  0  0  0
  7 17  1  0  0  0
  7 18  1  0  0  0
  7 26  1  0  0  0
  8  9  1  0  0  0
  8 19  1  0  0  0
  8 20  1  0  0  0
  8 26  1  0  0  0
  9 21  1  0  0  0
  9 22  1  0  0  0
 12 23  1  0  0  0
 12 24  1  0  0  0
 12 25  1  0  0  0
 12 26  1  0  0  0
 26 27  1  0  0  0
M  CHG  1  26   1
M  END
> <s_m_entry_name>
Schrodinger_fragment_352

> <i_m_number_of_atoms>
27

> <r_m_molecular_weight>
184.21968

> <s_m_molecular_formula>
C8H14N3O2

> <r_epik_Ionization_Penalty>
  0.9117

> <r_epik_Ionization_Penalty_Charging>
  0.0003

> <r_epik_Ionization_Penalty_Neutral>
  0.9113

> <r_epik_State_Penalty>
  0.8856

> <i_epik_Tot_Q>
1

> <r_epik_Metal_State_Penalty>
  3.3890

> <b_epik_Metal_Only>
0

> <s_m_entry_id>
4757

> <s_canvas_Unique_SMILES_Stereo>
C1C[NH+](C)CCC12C(=O)NC(=O)N2

$$$$
Schrodinger_fragment_291_b
                    3D
 Structure written by MMmdl.
 26 27  0  0  1  0            999 V2000
    0.9904   -2.8843   -0.0415 C   0  0  0  0  0  0
    1.3729   -1.8387   -0.8165 N   0  0  0  0  0  0
    1.9703   -3.4460    0.5690 N   0  0  0  0  0  0
    3.2237   -2.7629    0.2272 C   0  0  1  0  0  0
    2.6795   -1.6847   -0.7259 C   0  0  0  0  0  0
    3.8806   -2.1731    1.4954 C   0  0  0  0  0  0
    5.2817   -1.5894    1.2178 C   0  0  0  0  0  0
    5.5949   -3.1192   -0.6916 C   0  0  0  0  0  0
    4.2017   -3.7411   -0.4615 C   0  0  0  0  0  0
    3.3506   -0.8291   -1.3016 O   0  0  0  0  0  0
   -0.2289   -3.0556   -0.1040 O   0  5  0  0  0  0
    7.5477   -2.0743    0.3847 C   0  0  0  0  0  0
    0.7480   -1.2716   -1.3732 H   0  0  0  0  0  0
    3.2488   -1.3933    1.9242 H   0  0  0  0  0  0
    3.9621   -2.9453    2.2616 H   0  0  0  0  0  0
    5.2088   -0.6994    0.5916 H   0  0  0  0  0  0
    5.7256   -1.2632    2.1593 H   0  0  0  0  0  0
    6.2609   -3.8781   -1.1043 H   0  0  0  0  0  0
    5.5414   -2.3242   -1.4362 H   0  0  0  0  0  0
    4.3096   -4.6420    0.1441 H   0  0  0  0  0  0
    3.7974   -4.0727   -1.4195 H   0  0  0  0  0  0
    8.1990   -2.8469   -0.0248 H   0  0  0  0  0  0
    7.9756   -1.7561    1.3358 H   0  0  0  0  0  0
    7.5644   -1.2222   -0.2957 H   0  0  0  0  0  0
    6.1715   -2.5863    0.5693 N   0  3  1  0  0  0
    6.2533   -3.3651    1.2067 H   0  0  0  0  0  0
  1  2  1  0  0  0
  1  3  2  0  0  0
  1 11  1  0  0  0
  2  5  1  0  0  0
  2 13  1  0  0  0
  3  4  1  0  0  0
  4  5  1  0  0  0
  4  6  1  0  0  0
  4  9  1  0  0  0
  5 10  2  0  0  0
  6  7  1  0  0  0
  6 14  1  0  0  0
  6 15  1  0  0  0
  7 16  1  0  0  0
  7 17  1  0  0  0
  7 25  1  0  0  0
  8  9  1  0  0  0
  8 18  1  0  0  0
  8 19  1  0  0  0
  8 25  1  0  0  0
  9 20  1  0  0  0
  9 21  1  0  0  0
 12 22  1  0  0  0
 12 23  1  0  0  0
 12 24  1  0  0  0
 12 25  1  0  0  0
 25 26  1  0  0  0
M  CHG  2  11  -1  25   1
M  END
> <s_m_entry_name>
Schrodinger_fragment_352

> <i_m_number_of_atoms>
27

> <r_m_molecular_weight>
184.21968

> <s_m_molecular_formula>
C8H14N3O2

> <r_epik_Ionization_Penalty>
  1.7202

> <r_epik_Ionization_Penalty_Charging>
  1.7202

> <r_epik_Ionization_Penalty_Neutral>
  0.0000

> <r_epik_State_Penalty>
  2.5713

> <i_epik_Tot_Q>
0

> <r_epik_Metal_State_Penalty>
  0.9820

> <b_epik_Metal_Only>
0

> <s_m_entry_id>
4758

> <s_canvas_Unique_SMILES_Stereo>
C1C[NH+](C)CCC12C(=O)NC(=N2)[O-]

$$$$
Schrodinger_fragment_292
                    3D
 Structure written by MMmdl.
 26 27  0  0  1  0            999 V2000
    1.3899   -2.8816    1.4247 C   0  0  0  0  0  0
    2.2160   -2.2324    2.2572 N   0  5  0  0  0  0
    1.9746   -3.1034    0.2421 N   0  0  0  0  0  0
    3.3330   -2.5663    0.2312 C   0  0  0  0  0  0
    3.3948   -1.9919    1.6611 C   0  0  0  0  0  0
    4.3809   -3.6897    0.0053 C   0  0  0  0  0  0
    5.8145   -3.1418   -0.1613 C   0  0  0  0  0  0
    4.9525   -0.9785   -0.9932 C   0  0  0  0  0  0
    3.4941   -1.4640   -0.8505 C   0  0  0  0  0  0
    4.3801   -1.4194    2.1289 O   0  0  0  0  0  0
    0.2395   -3.2409    1.6822 O   0  0  0  0  0  0
    1.3624   -3.7862   -0.8993 C   0  0  0  0  0  0
    4.3613   -4.3960    0.8368 H   0  0  0  0  0  0
    4.1268   -4.2716   -0.8803 H   0  0  0  0  0  0
    6.1837   -2.7224    0.7748 H   0  0  0  0  0  0
    6.4951   -3.9548   -0.4164 H   0  0  0  0  0  0
    5.0317   -0.2822   -1.8288 H   0  0  0  0  0  0
    5.2683   -0.4248   -0.1088 H   0  0  0  0  0  0
    3.1544   -1.8314   -1.8185 H   0  0  0  0  0  0
    2.8536   -0.6117   -0.6183 H   0  0  0  0  0  0
    2.0315   -3.8496   -1.7562 H   0  0  0  0  0  0
    0.4628   -3.2569   -1.2152 H   0  0  0  0  0  0
    1.0773   -4.8013   -0.6210 H   0  0  0  0  0  0
    5.8775   -2.1105   -1.2201 N   0  3  0  0  0  0
    6.8191   -1.7536   -1.2677 H   0  0  0  0  0  0
    5.6787   -2.5330   -2.1127 H   0  0  0  0  0  0
  1  2  1  0  0  0
  1  3  1  0  0  0
  1 11  2  0  0  0
  2  5  1  0  0  0
  3  4  1  0  0  0
  3 12  1  0  0  0
  4  5  1  0  0  0
  4  6  1  0  0  0
  4  9  1  0  0  0
  5 10  2  0  0  0
  6  7  1  0  0  0
  6 13  1  0  0  0
  6 14  1  0  0  0
  7 15  1  0  0  0
  7 16  1  0  0  0
  7 24  1  0  0  0
  8  9  1  0  0  0
  8 17  1  0  0  0
  8 18  1  0  0  0
  8 24  1  0  0  0
  9 19  1  0  0  0
  9 20  1  0  0  0
 12 21  1  0  0  0
 12 22  1  0  0  0
 12 23  1  0  0  0
 24 25  1  0  0  0
 24 26  1  0  0  0
M  CHG  2   2  -1  24   1
M  END
> <s_m_entry_name>
Schrodinger_fragment_353

> <i_m_number_of_atoms>
27

> <r_m_molecular_weight>
184.21968

> <s_m_molecular_formula>
C8H14N3O2

> <r_epik_Ionization_Penalty>
  0.1911

> <r_epik_Ionization_Penalty_Charging>
  0.1911

> <r_epik_Ionization_Penalty_Neutral>
  0.0000

> <r_epik_State_Penalty>
  0.1892

> <i_epik_Tot_Q>
0

> <r_epik_Metal_State_Penalty>
  0.0002

> <b_epik_Metal_Only>
0

> <s_m_entry_id>
4759

> <s_canvas_Unique_SMILES_Stereo>
CN1C(=O)[N-]C(=O)C12CC[NH2+]CC2

$$$$
Schrodinger_fragment_292_a
                    3D
 Structure written by MMmdl.
 27 28  0  0  1  0            999 V2000
    1.3644   -2.8887    1.4320 C   0  0  0  0  0  0
    2.2135   -2.2452    2.2254 N   0  0  0  0  0  0
    1.9663   -3.1043    0.2479 N   0  0  0  0  0  0
    3.3322   -2.5708    0.2200 C   0  0  0  0  0  0
    3.3770   -2.0058    1.6426 C   0  0  0  0  0  0
    4.3845   -3.6893   -0.0016 C   0  0  0  0  0  0
    5.8195   -3.1388   -0.1576 C   0  0  0  0  0  0
    4.9573   -0.9749   -0.9900 C   0  0  0  0  0  0
    3.4987   -1.4661   -0.8567 C   0  0  0  0  0  0
    4.3396   -1.4268    2.1508 O   0  0  0  0  0  0
    0.2194   -3.2272    1.7379 O   0  0  0  0  0  0
    1.3470   -3.7879   -0.8877 C   0  0  0  0  0  0
    1.9924   -1.9708    3.1681 H   0  0  0  0  0  0
    4.3615   -4.4019    0.8245 H   0  0  0  0  0  0
    4.1351   -4.2661   -0.8919 H   0  0  0  0  0  0
    6.1817   -2.7222    0.7828 H   0  0  0  0  0  0
    6.5029   -3.9501   -0.4109 H   0  0  0  0  0  0
    5.0393   -0.2769   -1.8240 H   0  0  0  0  0  0
    5.2651   -0.4213   -0.1023 H   0  0  0  0  0  0
    3.1668   -1.8361   -1.8265 H   0  0  0  0  0  0
    2.8531   -0.6156   -0.6316 H   0  0  0  0  0  0
    2.0126   -3.8540   -1.7477 H   0  0  0  0  0  0
    0.4467   -3.2591   -1.2039 H   0  0  0  0  0  0
    1.0611   -4.8033   -0.6095 H   0  0  0  0  0  0
    5.8891   -2.1028   -1.2119 N   0  3  0  0  0  0
    6.8302   -1.7424   -1.2497 H   0  0  0  0  0  0
    5.7034   -2.5220   -2.1092 H   0  0  0  0  0  0
  1  2  1  0  0  0
  1  3  1  0  0  0
  1 11  2  0  0  0
  2  5  1  0  0  0
  2 13  1  0  0  0
  3  4  1  0  0  0
  3 12  1  0  0  0
  4  5  1  0  0  0
  4  6  1  0  0  0
  4  9  1  0  0  0
  5 10  2  0  0  0
  6  7  1  0  0  0
  6 14  1  0  0  0
  6 15  1  0  0  0
  7 16  1  0  0  0
  7 17  1  0  0  0
  7 25  1  0  0  0
  8  9  1  0  0  0
  8 18  1  0  0  0
  8 19  1  0  0  0
  8 25  1  0  0  0
  9 20  1  0  0  0
  9 21  1  0  0  0
 12 22  1  0  0  0
 12 23  1  0  0  0
 12 24  1  0  0  0
 25 26  1  0  0  0
 25 27  1  0  0  0
M  CHG  1  25   1
M  END
> <s_m_entry_name>
Schrodinger_fragment_353

> <i_m_number_of_atoms>
27

> <r_m_molecular_weight>
184.21968

> <s_m_molecular_formula>
C8H14N3O2

> <r_epik_Ionization_Penalty>
  0.7745

> <r_epik_Ionization_Penalty_Charging>
  0.0062

> <r_epik_Ionization_Penalty_Neutral>
  0.7683

> <r_epik_State_Penalty>
  0.7683

> <i_epik_Tot_Q>
1

> <r_epik_Metal_State_Penalty>
  4.6720

> <b_epik_Metal_Only>
0

> <s_m_entry_id>
4760

> <s_canvas_Unique_SMILES_Stereo>
CN1C(=O)NC(=O)C12CC[NH2+]CC2

$$$$
Schrodinger_fragment_293
                    3D
 Structure written by MMmdl.
 30 31  0  0  1  0            999 V2000
    0.8839   -2.5222    1.0530 C   0  0  0  0  0  0
    1.3107   -3.2367    0.0010 N   0  0  0  0  0  0
    1.9313   -1.9073    1.6071 N   0  0  0  0  0  0
    3.1824   -2.1896    0.9229 C   0  0  1  0  0  0
    2.6318   -3.1149   -0.1650 C   0  0  0  0  0  0
    3.8149   -0.8958    0.3579 C   0  0  0  0  0  0
    5.2145   -1.1310   -0.2506 C   0  0  0  0  0  0
    5.5800   -3.0785    1.2214 C   0  0  0  0  0  0
    4.1892   -2.8906    1.8654 C   0  0  0  0  0  0
    3.3205   -3.6475   -1.0402 O   0  0  0  0  0  0
   -0.2784   -2.4373    1.4543 O   0  0  0  0  0  0
    0.4284   -4.0419   -0.8460 C   0  0  0  0  0  0
    7.4994   -1.9440    0.1761 C   0  0  0  0  0  0
    1.8567   -1.3095    2.4174 H   0  0  0  0  0  0
    3.1665   -0.4531   -0.4003 H   0  0  0  0  0  0
    3.8921   -0.1512    1.1512 H   0  0  0  0  0  0
    5.1433   -1.7291   -1.1600 H   0  0  0  0  0  0
    5.6384   -0.1719   -0.5519 H   0  0  0  0  0  0
    6.2626   -3.4977    1.9621 H   0  0  0  0  0  0
    5.5330   -3.8044    0.4086 H   0  0  0  0  0  0
    4.2968   -2.3086    2.7816 H   0  0  0  0  0  0
    3.8065   -3.8639    2.1773 H   0  0  0  0  0  0
    0.9646   -4.5370   -1.6570 H   0  0  0  0  0  0
   -0.3441   -3.4152   -1.2939 H   0  0  0  0  0  0
   -0.0647   -4.8142   -0.2541 H   0  0  0  0  0  0
    8.1690   -2.3652    0.9265 H   0  0  0  0  0  0
    7.9088   -0.9782   -0.1218 H   0  0  0  0  0  0
    7.5129   -2.5999   -0.6951 H   0  0  0  0  0  0
    6.1288   -1.7941    0.7147 N   0  3  1  0  0  0
    6.2174   -1.1770    1.5092 H   0  0  0  0  0  0
  1  2  1  0  0  0
  1  3  1  0  0  0
  1 11  2  0  0  0
  2  5  1  0  0  0
  2 12  1  0  0  0
  3  4  1  0  0  0
  3 14  1  0  0  0
  4  5  1  0  0  0
  4  6  1  0  0  0
  4  9  1  0  0  0
  5 10  2  0  0  0
  6  7  1  0  0  0
  6 15  1  0  0  0
  6 16  1  0  0  0
  7 17  1  0  0  0
  7 18  1  0  0  0
  7 29  1  0  0  0
  8  9  1  0  0  0
  8 19  1  0  0  0
  8 20  1  0  0  0
  8 29  1  0  0  0
  9 21  1  0  0  0
  9 22  1  0  0  0
 12 23  1  0  0  0
 12 24  1  0  0  0
 12 25  1  0  0  0
 13 26  1  0  0  0
 13 27  1  0  0  0
 13 28  1  0  0  0
 13 29  1  0  0  0
 29 30  1  0  0  0
M  CHG  1  29   1
M  END
> <s_m_entry_name>
Schrodinger_fragment_354

> <i_m_number_of_atoms>
30

> <r_m_molecular_weight>
198.24677

> <s_m_molecular_formula>
C9H16N3O2

> <r_epik_Ionization_Penalty>
  0.0340

> <r_epik_Ionization_Penalty_Charging>
  0.0005

> <r_epik_Ionization_Penalty_Neutral>
  0.0335

> <r_epik_State_Penalty>
  0.0335

> <i_epik_Tot_Q>
1

> <r_epik_Metal_State_Penalty>
  2.4171

> <b_epik_Metal_Only>
0

> <s_m_entry_id>
4761

> <s_canvas_Unique_SMILES_Stereo>
N1C(=O)N(C)C(=O)C12CC[NH+](C)CC2

$$$$
Schrodinger_fragment_293_a
                    3D
 Structure written by MMmdl.
 29 30  0  0  1  0            999 V2000
    0.9488   -2.4891    1.0829 C   0  0  0  0  0  0
    1.3238   -3.2448   -0.0119 N   0  0  0  0  0  0
    1.9389   -1.8854    1.6364 N   0  0  0  0  0  0
    3.1809   -2.1908    0.9226 C   0  0  1  0  0  0
    2.6363   -3.1212   -0.1746 C   0  0  0  0  0  0
    3.8102   -0.8959    0.3604 C   0  0  0  0  0  0
    5.2080   -1.1321   -0.2493 C   0  0  0  0  0  0
    5.5737   -3.0794    1.2200 C   0  0  0  0  0  0
    4.1850   -2.8912    1.8662 C   0  0  0  0  0  0
    3.3218   -3.6534   -1.0503 O   0  0  0  0  0  0
   -0.2635   -2.5349    1.3242 O   0  5  0  0  0  0
    0.4106   -4.0437   -0.8427 C   0  0  0  0  0  0
    7.4937   -1.9412    0.1802 C   0  0  0  0  0  0
    3.1612   -0.4550   -0.3983 H   0  0  0  0  0  0
    3.8898   -0.1507    1.1531 H   0  0  0  0  0  0
    5.1342   -1.7324   -1.1569 H   0  0  0  0  0  0
    5.6316   -0.1738   -0.5527 H   0  0  0  0  0  0
    6.2565   -3.5017    1.9584 H   0  0  0  0  0  0
    5.5228   -3.8023    0.4050 H   0  0  0  0  0  0
    4.2955   -2.3104    2.7829 H   0  0  0  0  0  0
    3.8016   -3.8651    2.1754 H   0  0  0  0  0  0
    0.9352   -4.5535   -1.6519 H   0  0  0  0  0  0
   -0.3528   -3.4086   -1.2942 H   0  0  0  0  0  0
   -0.0876   -4.8057   -0.2420 H   0  0  0  0  0  0
    8.1622   -2.3628    0.9313 H   0  0  0  0  0  0
    7.9019   -0.9744   -0.1154 H   0  0  0  0  0  0
    7.5091   -2.5958   -0.6919 H   0  0  0  0  0  0
    6.1220   -1.7942    0.7162 N   0  3  1  0  0  0
    6.2048   -1.1782    1.5120 H   0  0  0  0  0  0
  1  2  1  0  0  0
  1  3  2  0  0  0
  1 11  1  0  0  0
  2  5  1  0  0  0
  2 12  1  0  0  0
  3  4  1  0  0  0
  4  5  1  0  0  0
  4  6  1  0  0  0
  4  9  1  0  0  0
  5 10  2  0  0  0
  6  7  1  0  0  0
  6 14  1  0  0  0
  6 15  1  0  0  0
  7 16  1  0  0  0
  7 17  1  0  0  0
  7 28  1  0  0  0
  8  9  1  0  0  0
  8 18  1  0  0  0
  8 19  1  0  0  0
  8 28  1  0  0  0
  9 20  1  0  0  0
  9 21  1  0  0  0
 12 22  1  0  0  0
 12 23  1  0  0  0
 12 24  1  0  0  0
 13 25  1  0  0  0
 13 26  1  0  0  0
 13 27  1  0  0  0
 13 28  1  0  0  0
 28 29  1  0  0  0
M  CHG  2  11  -1  28   1
M  END
> <s_m_entry_name>
Schrodinger_fragment_354

> <i_m_number_of_atoms>
30

> <r_m_molecular_weight>
198.24677

> <s_m_molecular_formula>
C9H16N3O2

> <r_epik_Ionization_Penalty>
  1.7209

> <r_epik_Ionization_Penalty_Charging>
  1.7209

> <r_epik_Ionization_Penalty_Neutral>
  0.0000

> <r_epik_State_Penalty>
  1.7192

> <i_epik_Tot_Q>
0

> <r_epik_Metal_State_Penalty>
  0.0101

> <b_epik_Metal_Only>
0

> <s_m_entry_id>
4762

> <s_canvas_Unique_SMILES_Stereo>
N1=C([O-])N(C)C(=O)C12CC[NH+](C)CC2

$$$$
Schrodinger_fragment_294
                    3D
 Structure written by MMmdl.
 14 15  0  0  1  0            999 V2000
    2.1550    2.1392    0.0232 C   0  0  0  0  0  0
    2.2645    0.7742    0.0261 C   0  0  0  0  0  0
    3.4054    0.0031    0.0292 N   0  0  0  0  0  0
    4.4948    0.7348    0.0291 C   0  0  0  0  0  0
    4.5209    2.1496    0.0262 N   0  0  0  0  0  0
    3.4194    2.9295    0.0232 C   0  0  0  0  0  0
    0.8133    2.5334    0.0206 N   0  0  0  0  0  0
    0.1589    1.3678    0.0222 C   0  0  0  0  0  0
    0.9649    0.2960    0.0254 N   0  0  0  0  0  0
    3.4546    4.1643    0.0207 O   0  0  0  0  0  0
    5.4921    0.2912    0.0313 H   0  0  0  0  0  0
    5.4158    2.6116    0.0264 H   0  0  0  0  0  0
   -0.9199    1.2909    0.0209 H   0  0  0  0  0  0
    0.6589   -0.6706    0.0270 H   0  0  0  0  0  0
  1  2  2  0  0  0
  1  6  1  0  0  0
  1  7  1  0  0  0
  2  3  1  0  0  0
  2  9  1  0  0  0
  3  4  2  0  0  0
  4  5  1  0  0  0
  4 11  1  0  0  0
  5  6  1  0  0  0
  5 12  1  0  0  0
  6 10  2  0  0  0
  7  8  2  0  0  0
  8  9  1  0  0  0
  8 13  1  0  0  0
  9 14  1  0  0  0
M  END
> <s_m_entry_name>
Schrodinger_fragment_355

> <i_m_number_of_atoms>
14

> <r_m_molecular_weight>
136.11383

> <s_m_molecular_formula>
C5H4N4O1

> <r_epik_Ionization_Penalty>
  0.0109

> <r_epik_Ionization_Penalty_Charging>
  0.0051

> <r_epik_Ionization_Penalty_Neutral>
  0.0057

> <r_epik_State_Penalty>
  0.0000

> <i_epik_Tot_Q>
0

> <r_epik_Metal_State_Penalty>
  0.7023

> <b_epik_Metal_Only>
0

> <s_m_entry_id>
4763

> <s_canvas_Unique_SMILES_Stereo>
n1c[nH]c(c12)nc[nH]c2=O

$$$$
Schrodinger_fragment_294_a
                    3D
 Structure written by MMmdl.
 13 14  0  0  1  0            999 V2000
    2.1419    2.1424    0.0231 C   0  0  0  0  0  0
    2.2623    0.7255    0.0262 C   0  0  0  0  0  0
    3.4187    0.0065    0.0292 N   0  0  0  0  0  0
    4.4909    0.7997    0.0290 C   0  0  0  0  0  0
    4.5221    2.1423    0.0262 N   0  0  0  0  0  0
    3.3703    2.8363    0.0233 C   0  0  0  0  0  0
    0.8137    2.5460    0.0206 N   0  0  0  0  0  0
    0.1781    1.3690    0.0222 C   0  0  0  0  0  0
    0.9585    0.2753    0.0255 N   0  0  0  0  0  0
    3.4991    4.1899    0.0207 O   0  5  0  0  0  0
    5.4495    0.2982    0.0313 H   0  0  0  0  0  0
   -0.9028    1.2990    0.0209 H   0  0  0  0  0  0
    0.6201   -0.6789    0.0270 H   0  0  0  0  0  0
  1  2  2  0  0  0
  1  6  1  0  0  0
  1  7  1  0  0  0
  2  3  1  0  0  0
  2  9  1  0  0  0
  3  4  2  0  0  0
  4  5  1  0  0  0
  4 11  1  0  0  0
  5  6  2  0  0  0
  6 10  1  0  0  0
  7  8  2  0  0  0
  8  9  1  0  0  0
  8 12  1  0  0  0
  9 13  1  0  0  0
M  CHG  1  10  -1
M  END
> <s_m_entry_name>
Schrodinger_fragment_355

> <i_m_number_of_atoms>
14

> <r_m_molecular_weight>
136.11383

> <s_m_molecular_formula>
C5H4N4O1

> <r_epik_Ionization_Penalty>
  2.8156

> <r_epik_Ionization_Penalty_Charging>
  0.0000

> <r_epik_Ionization_Penalty_Neutral>
  2.8156

> <r_epik_State_Penalty>
  2.8104

> <i_epik_Tot_Q>
-1

> <r_epik_Metal_State_Penalty>
  0.7617

> <b_epik_Metal_Only>
1

> <s_m_entry_id>
4764

> <s_canvas_Unique_SMILES_Stereo>
n1c[nH]c(c12)ncnc2[O-]

$$$$
Schrodinger_fragment_294_b
                    3D
 Structure written by MMmdl.
 13 14  0  0  1  0            999 V2000
    2.1385    2.1882    0.0230 C   0  0  0  0  0  0
    2.1883    0.7684    0.0260 C   0  0  0  0  0  0
    3.3897    0.0544    0.0291 N   0  0  0  0  0  0
    4.4963    0.7463    0.0291 C   0  0  0  0  0  0
    4.5428    2.1479    0.0263 N   0  0  0  0  0  0
    3.4523    2.9317    0.0232 C   0  0  0  0  0  0
    0.8276    2.5359    0.0206 N   0  0  0  0  0  0
    0.1187    1.3870    0.0221 C   0  0  0  0  0  0
    0.9323    0.3080    0.0254 N   0  5  0  0  0  0
    3.5000    4.1672    0.0207 O   0  0  0  0  0  0
    5.4822    0.2788    0.0313 H   0  0  0  0  0  0
    5.4436    2.5992    0.0265 H   0  0  0  0  0  0
   -0.9642    1.2720    0.0209 H   0  0  0  0  0  0
  1  2  2  0  0  0
  1  6  1  0  0  0
  1  7  1  0  0  0
  2  3  1  0  0  0
  2  9  1  0  0  0
  3  4  2  0  0  0
  4  5  1  0  0  0
  4 11  1  0  0  0
  5  6  1  0  0  0
  5 12  1  0  0  0
  6 10  2  0  0  0
  7  8  2  0  0  0
  8  9  1  0  0  0
  8 13  1  0  0  0
M  CHG  1   9  -1
M  END
> <s_m_entry_name>
Schrodinger_fragment_355

> <i_m_number_of_atoms>
14

> <r_m_molecular_weight>
136.11383

> <s_m_molecular_formula>
C5H4N4O1

> <r_epik_Ionization_Penalty>
  5.7936

> <r_epik_Ionization_Penalty_Charging>
  2.7615

> <r_epik_Ionization_Penalty_Neutral>
  3.0322

> <r_epik_State_Penalty>
  2.7558

> <i_epik_Tot_Q>
-1

> <r_epik_Metal_State_Penalty>
  0.5170

> <b_epik_Metal_Only>
1

> <s_m_entry_id>
4765

> <s_canvas_Unique_SMILES_Stereo>
n1c[n-]c(c12)nc[nH]c2=O

$$$$
Schrodinger_fragment_295
                    3D
 Structure written by MMmdl.
 17 18  0  0  1  0            999 V2000
    2.1781   -2.2249    0.0220 C   0  0  0  0  0  0
    2.2735   -3.5907    0.0231 C   0  0  0  0  0  0
    3.4130   -4.3680    0.0264 N   0  0  0  0  0  0
    4.5069   -3.6450    0.0287 C   0  0  0  0  0  0
    4.5429   -2.2314    0.0279 N   0  0  0  0  0  0
    3.4469   -1.4449    0.0247 C   0  0  0  0  0  0
    0.8447   -1.8172    0.0184 N   0  0  0  0  0  0
    0.1875   -2.9796    0.0175 C   0  0  0  0  0  0
    0.9713   -4.0748    0.0202 N   0  0  0  0  0  0
    3.4904   -0.2104    0.0240 O   0  0  0  0  0  0
    0.5479   -5.4606    0.0200 C   0  0  0  0  0  0
    5.5009   -4.0959    0.0315 H   0  0  0  0  0  0
    5.4409   -1.7754    0.0299 H   0  0  0  0  0  0
   -0.8923   -3.0377    0.0149 H   0  0  0  0  0  0
   -0.5405   -5.5252    0.0174 H   0  0  0  0  0  0
    0.9308   -5.9615    0.9092 H   0  0  0  0  0  0
    0.9351   -5.9626   -0.8667 H   0  0  0  0  0  0
  1  2  2  0  0  0
  1  6  1  0  0  0
  1  7  1  0  0  0
  2  3  1  0  0  0
  2  9  1  0  0  0
  3  4  2  0  0  0
  4  5  1  0  0  0
  4 12  1  0  0  0
  5  6  1  0  0  0
  5 13  1  0  0  0
  6 10  2  0  0  0
  7  8  2  0  0  0
  8  9  1  0  0  0
  8 14  1  0  0  0
  9 11  1  0  0  0
 11 15  1  0  0  0
 11 16  1  0  0  0
 11 17  1  0  0  0
M  END
> <s_m_entry_name>
Schrodinger_fragment_356

> <i_m_number_of_atoms>
17

> <r_m_molecular_weight>
150.14092

> <s_m_molecular_formula>
C6H6N4O1

> <r_epik_Ionization_Penalty>
  0.0042

> <r_epik_Ionization_Penalty_Charging>
  0.0040

> <r_epik_Ionization_Penalty_Neutral>
  0.0002

> <r_epik_State_Penalty>
  0.0000

> <i_epik_Tot_Q>
0

> <r_epik_Metal_State_Penalty>
  0.3735

> <b_epik_Metal_Only>
0

> <s_m_entry_id>
4766

> <s_canvas_Unique_SMILES_Stereo>
n1cn(C)c(c12)nc[nH]c2=O

$$$$
Schrodinger_fragment_295_a
                    3D
 Structure written by MMmdl.
 16 17  0  0  1  0            999 V2000
    2.1715   -2.2193    0.0220 C   0  0  0  0  0  0
    2.2837   -3.6370    0.0232 C   0  0  0  0  0  0
    3.4418   -4.3598    0.0265 N   0  0  0  0  0  0
    4.5142   -3.5707    0.0287 C   0  0  0  0  0  0
    4.5492   -2.2290    0.0280 N   0  0  0  0  0  0
    3.4012   -1.5309    0.0247 C   0  0  0  0  0  0
    0.8500   -1.8062    0.0185 N   0  0  0  0  0  0
    0.2143   -2.9826    0.0176 C   0  0  0  0  0  0
    0.9737   -4.0997    0.0202 N   0  0  0  0  0  0
    3.5346   -0.1780    0.0241 O   0  5  0  0  0  0
    0.5180   -5.4772    0.0199 C   0  0  0  0  0  0
    5.4714   -4.0749    0.0314 H   0  0  0  0  0  0
   -0.8668   -3.0362    0.0149 H   0  0  0  0  0  0
   -0.5716   -5.5201    0.0173 H   0  0  0  0  0  0
    0.8919   -5.9870    0.9084 H   0  0  0  0  0  0
    0.8963   -5.9880   -0.8661 H   0  0  0  0  0  0
  1  2  2  0  0  0
  1  6  1  0  0  0
  1  7  1  0  0  0
  2  3  1  0  0  0
  2  9  1  0  0  0
  3  4  2  0  0  0
  4  5  1  0  0  0
  4 12  1  0  0  0
  5  6  2  0  0  0
  6 10  1  0  0  0
  7  8  2  0  0  0
  8  9  1  0  0  0
  8 13  1  0  0  0
  9 11  1  0  0  0
 11 14  1  0  0  0
 11 15  1  0  0  0
 11 16  1  0  0  0
M  CHG  1  10  -1
M  END
> <s_m_entry_name>
Schrodinger_fragment_356

> <i_m_number_of_atoms>
17

> <r_m_molecular_weight>
150.14092

> <s_m_molecular_formula>
C6H6N4O1

> <r_epik_Ionization_Penalty>
  2.9564

> <r_epik_Ionization_Penalty_Charging>
  0.0000

> <r_epik_Ionization_Penalty_Neutral>
  2.9564

> <r_epik_State_Penalty>
  2.9521

> <i_epik_Tot_Q>
-1

> <r_epik_Metal_State_Penalty>
  0.4503

> <b_epik_Metal_Only>
1

> <s_m_entry_id>
4767

> <s_canvas_Unique_SMILES_Stereo>
n1cn(C)c(c12)ncnc2[O-]

$$$$
Schrodinger_fragment_296
                    3D
 Structure written by MMmdl.
 20 21  0  0  1  0            999 V2000
    2.1494   -2.2119    0.0221 C   0  0  0  0  0  0
    2.2629   -3.5742    0.0234 C   0  0  0  0  0  0
    3.4093   -4.3354    0.0274 N   0  0  0  0  0  0
    4.4937   -3.5996    0.0302 C   0  0  0  0  0  0
    4.5331   -2.1755    0.0292 N   0  0  0  0  0  0
    3.4045   -1.4098    0.0252 C   0  0  0  0  0  0
    0.8087   -1.8237    0.0178 N   0  0  0  0  0  0
    0.1677   -2.9948    0.0168 C   0  0  0  0  0  0
    0.9680   -4.0777    0.0200 N   0  0  0  0  0  0
    3.3950   -0.1719    0.0242 O   0  0  0  0  0  0
    0.5657   -5.4698    0.0199 C   0  0  0  0  0  0
    5.8738   -1.5776    0.0329 C   0  0  0  0  0  0
    5.4844   -4.0585    0.0335 H   0  0  0  0  0  0
   -0.9112   -3.0687    0.0136 H   0  0  0  0  0  0
   -0.5217   -5.5508    0.0167 H   0  0  0  0  0  0
    0.9556   -5.9647    0.9093 H   0  0  0  0  0  0
    0.9608   -5.9660   -0.8666 H   0  0  0  0  0  0
    5.8631   -0.4868    0.0323 H   0  0  0  0  0  0
    6.4353   -1.8923   -0.8480 H   0  0  0  0  0  0
    6.4300   -1.8913    0.9175 H   0  0  0  0  0  0
  1  2  2  0  0  0
  1  6  1  0  0  0
  1  7  1  0  0  0
  2  3  1  0  0  0
  2  9  1  0  0  0
  3  4  2  0  0  0
  4  5  1  0  0  0
  4 13  1  0  0  0
  5  6  1  0  0  0
  5 12  1  0  0  0
  6 10  2  0  0  0
  7  8  2  0  0  0
  8  9  1  0  0  0
  8 14  1  0  0  0
  9 11  1  0  0  0
 11 15  1  0  0  0
 11 16  1  0  0  0
 11 17  1  0  0  0
 12 18  1  0  0  0
 12 19  1  0  0  0
 12 20  1  0  0  0
M  END
> <s_m_entry_name>
Schrodinger_fragment_357

> <i_m_number_of_atoms>
20

> <r_m_molecular_weight>
164.16801

> <s_m_molecular_formula>
C7H8N4O1

> <r_epik_Ionization_Penalty>
  0.0004

> <r_epik_Ionization_Penalty_Charging>
  0.0000

> <r_epik_Ionization_Penalty_Neutral>
  0.0004

> <r_epik_State_Penalty>
  0.0000

> <i_epik_Tot_Q>
0

> <r_epik_Metal_State_Penalty>
  0.0000

> <b_epik_Metal_Only>
0

> <s_m_entry_id>
4768

> <s_canvas_Unique_SMILES_Stereo>
n1cn(C)c(c12)ncn(C)c2=O

$$$$
Schrodinger_fragment_297
                    3D
 Structure written by MMmdl.
 17 18  0  0  1  0            999 V2000
    2.1630   -2.2208    0.0226 C   0  0  0  0  0  0
    2.2928   -3.5820    0.0253 C   0  0  0  0  0  0
    3.4416   -4.3352    0.0264 N   0  0  0  0  0  0
    4.5202   -3.5890    0.0243 C   0  0  0  0  0  0
    4.5472   -2.1638    0.0214 N   0  0  0  0  0  0
    3.4121   -1.4067    0.0202 C   0  0  0  0  0  0
    0.8136   -1.8485    0.0225 N   0  0  0  0  0  0
    0.1774   -3.0238    0.0253 C   0  0  0  0  0  0
    1.0013   -4.0815    0.0271 N   0  0  0  0  0  0
    3.3923   -0.1687    0.0176 O   0  0  0  0  0  0
    5.8829   -1.5546    0.0197 C   0  0  0  0  0  0
    5.5149   -4.0390    0.0247 H   0  0  0  0  0  0
   -0.9000   -3.1181    0.0260 H   0  0  0  0  0  0
    0.7111   -5.0531    0.0293 H   0  0  0  0  0  0
    5.8630   -0.4639    0.0183 H   0  0  0  0  0  0
    6.4437   -1.8652   -0.8631 H   0  0  0  0  0  0
    6.4450   -1.8630    0.9025 H   0  0  0  0  0  0
  1  2  2  0  0  0
  1  6  1  0  0  0
  1  7  1  0  0  0
  2  3  1  0  0  0
  2  9  1  0  0  0
  3  4  2  0  0  0
  4  5  1  0  0  0
  4 12  1  0  0  0
  5  6  1  0  0  0
  5 11  1  0  0  0
  6 10  2  0  0  0
  7  8  2  0  0  0
  8  9  1  0  0  0
  8 13  1  0  0  0
  9 14  1  0  0  0
 11 15  1  0  0  0
 11 16  1  0  0  0
 11 17  1  0  0  0
M  END
> <s_m_entry_name>
Schrodinger_fragment_358

> <i_m_number_of_atoms>
17

> <r_m_molecular_weight>
150.14092

> <s_m_molecular_formula>
C6H6N4O1

> <r_epik_Ionization_Penalty>
  0.0046

> <r_epik_Ionization_Penalty_Charging>
  0.0044

> <r_epik_Ionization_Penalty_Neutral>
  0.0002

> <r_epik_State_Penalty>
  0.0000

> <i_epik_Tot_Q>
0

> <r_epik_Metal_State_Penalty>
  0.5662

> <b_epik_Metal_Only>
0

> <s_m_entry_id>
4769

> <s_canvas_Unique_SMILES_Stereo>
O=c1n(C)cnc(c12)[nH]cn2

$$$$
Schrodinger_fragment_297_a
                    3D
 Structure written by MMmdl.
 16 17  0  0  1  0            999 V2000
    2.1483   -2.1933    0.0225 C   0  0  0  0  0  0
    2.2091   -3.6097    0.0255 C   0  0  0  0  0  0
    3.4009   -4.2624    0.0263 N   0  0  0  0  0  0
    4.5311   -3.5376    0.0243 C   0  0  0  0  0  0
    4.5606   -2.1768    0.0214 N   0  0  0  0  0  0
    3.3864   -1.4792    0.0205 C   0  0  0  0  0  0
    0.8633   -1.8490    0.0224 N   0  0  0  0  0  0
    0.1898   -3.0183    0.0252 C   0  0  0  0  0  0
    0.9791   -4.1111    0.0271 N   0  0  0  0  0  0
    3.4382   -0.1158    0.0175 O   0  5  0  0  0  0
    5.8862   -1.5458    0.0196 C   0  0  0  0  0  0
    5.4657   -4.0880    0.0250 H   0  0  0  0  0  0
   -0.8935   -3.0744    0.0259 H   0  0  0  0  0  0
    5.8561   -0.4558    0.0184 H   0  0  0  0  0  0
    6.4451   -1.8607   -0.8644 H   0  0  0  0  0  0
    6.4465   -1.8585    0.9036 H   0  0  0  0  0  0
  1  2  1  0  0  0
  1  6  2  0  0  0
  1  7  1  0  0  0
  2  3  1  0  0  0
  2  9  2  0  0  0
  3  4  2  0  0  0
  4  5  1  0  0  0
  4 12  1  0  0  0
  5  6  1  0  0  0
  5 11  1  0  0  0
  6 10  1  0  0  0
  7  8  2  0  0  0
  8  9  1  0  0  0
  8 13  1  0  0  0
 11 14  1  0  0  0
 11 15  1  0  0  0
 11 16  1  0  0  0
M  CHG  1  10  -1
M  END
> <s_m_entry_name>
Schrodinger_fragment_358

> <i_m_number_of_atoms>
17

> <r_m_molecular_weight>
150.14092

> <s_m_molecular_formula>
C6H6N4O1

> <r_epik_Ionization_Penalty>
  6.2197

> <r_epik_Ionization_Penalty_Charging>
  0.0000

> <r_epik_Ionization_Penalty_Neutral>
  6.2197

> <r_epik_State_Penalty>
  2.8976

> <i_epik_Tot_Q>
-1

> <r_epik_Metal_State_Penalty>
  0.2876

> <b_epik_Metal_Only>
1

> <s_m_entry_id>
4770

> <s_canvas_Unique_SMILES_Stereo>
[O-]c1n(C)cnc(-c12)ncn2

$$$$
Schrodinger_fragment_298
                    3D
 Structure written by MMmdl.
 14 15  0  0  1  0            999 V2000
    2.2043    2.1185    0.0241 C   0  0  0  0  0  0
    2.2560    0.7666    0.0248 C   0  0  0  0  0  0
    3.4242    0.0247    0.0271 N   0  0  0  0  0  0
    4.5203    0.7455    0.0285 C   0  0  0  0  0  0
    4.5562    2.1570    0.0278 N   0  0  0  0  0  0
    3.4527    2.9266    0.0257 C   0  0  0  0  0  0
    0.8357    2.4890    0.0217 C   0  0  0  0  0  0
    0.0745    1.3856    0.0210 N   0  0  0  0  0  0
    0.9497    0.3338    0.0230 N   0  0  0  0  0  0
    3.4534    4.1598    0.0251 O   0  0  0  0  0  0
    5.5135    0.2935    0.0303 H   0  0  0  0  0  0
    5.4546    2.6161    0.0290 H   0  0  0  0  0  0
    0.3863    3.4723    0.0205 H   0  0  0  0  0  0
    0.6531   -0.6402    0.0230 H   0  0  0  0  0  0
  1  2  2  0  0  0
  1  6  1  0  0  0
  1  7  1  0  0  0
  2  3  1  0  0  0
  2  9  1  0  0  0
  3  4  2  0  0  0
  4  5  1  0  0  0
  4 11  1  0  0  0
  5  6  1  0  0  0
  5 12  1  0  0  0
  6 10  2  0  0  0
  7  8  2  0  0  0
  7 13  1  0  0  0
  8  9  1  0  0  0
  9 14  1  0  0  0
M  END
> <s_m_entry_name>
Schrodinger_fragment_359

> <i_m_number_of_atoms>
14

> <r_m_molecular_weight>
136.11383

> <s_m_molecular_formula>
C5H4N4O1

> <r_epik_Ionization_Penalty>
  0.0514

> <r_epik_Ionization_Penalty_Charging>
  0.0514

> <r_epik_Ionization_Penalty_Neutral>
  0.0000

> <r_epik_State_Penalty>
  0.6420

> <i_epik_Tot_Q>
0

> <r_epik_Metal_State_Penalty>
  1.1931

> <b_epik_Metal_Only>
0

> <s_m_entry_id>
4771

> <s_canvas_Unique_SMILES_Stereo>
c1n[nH]c(c12)nc[nH]c2=O

$$$$
Schrodinger_fragment_298_a
                    3D
 Structure written by MMmdl.
 14 15  0  0  1  0            999 V2000
    2.1647    2.1839    0.0240 C   0  0  0  0  0  0
    2.1688    0.7783    0.0247 C   0  0  0  0  0  0
    3.3602    0.0470    0.0270 N   0  0  0  0  0  0
    4.4700    0.7394    0.0284 C   0  0  0  0  0  0
    4.5263    2.1494    0.0278 N   0  0  0  0  0  0
    3.4423    2.9473    0.0257 C   0  0  0  0  0  0
    0.8656    2.5895    0.0217 C   0  0  0  0  0  0
    0.1551    1.3976    0.0212 N   0  0  0  0  0  0
    0.9421    0.2781    0.0230 N   0  0  0  0  0  0
    3.4784    4.1801    0.0251 O   0  0  0  0  0  0
    5.4541    0.2682    0.0302 H   0  0  0  0  0  0
    5.4335    2.5914    0.0290 H   0  0  0  0  0  0
    0.4047    3.5679    0.0205 H   0  0  0  0  0  0
   -0.8621    1.3512    0.0195 H   0  0  0  0  0  0
  1  6  1  0  0  0
  1  2  1  0  0  0
  1  7  2  0  0  0
  2  3  1  0  0  0
  2  9  2  0  0  0
  3  4  2  0  0  0
  4  5  1  0  0  0
  4 11  1  0  0  0
  5  6  1  0  0  0
  5 12  1  0  0  0
  6 10  2  0  0  0
  7 13  1  0  0  0
  7  8  1  0  0  0
  8 14  1  0  0  0
  8  9  1  0  0  0
M  END
> <s_m_entry_name>
Schrodinger_fragment_359

> <i_m_number_of_atoms>
14

> <r_m_molecular_weight>
136.11383

> <s_m_molecular_formula>
C5H4N4O1

> <r_epik_Ionization_Penalty>
  0.2787

> <r_epik_Ionization_Penalty_Charging>
  0.0000

> <r_epik_Ionization_Penalty_Neutral>
  0.2787

> <r_epik_State_Penalty>
  0.6420

> <i_epik_Tot_Q>
0

> <r_epik_Metal_State_Penalty>
  1.1931

> <b_epik_Metal_Only>
0

> <s_m_entry_id>
4772

> <s_canvas_Unique_SMILES_Stereo>
c1[nH]nc(c12)nc[nH]c2=O

$$$$
Schrodinger_fragment_298_b
                    3D
 Structure written by MMmdl.
 13 14  0  0  1  0            999 V2000
    2.1796    2.1451    0.0240 C   0  0  0  0  0  0
    2.1938    0.7647    0.0247 C   0  0  0  0  0  0
    3.3520    0.0889    0.0269 N   0  0  0  0  0  0
    4.4708    0.8062    0.0284 C   0  0  0  0  0  0
    4.5491    2.1445    0.0278 N   0  0  0  0  0  0
    3.3962    2.8216    0.0256 C   0  0  0  0  0  0
    0.8631    2.5813    0.0217 C   0  0  0  0  0  0
    0.1259    1.4106    0.0211 N   0  0  0  0  0  0
    0.9297    0.2841    0.0230 N   0  0  0  0  0  0
    3.5181    4.1746    0.0252 O   0  5  0  0  0  0
    5.4031    0.2633    0.0301 H   0  0  0  0  0  0
    0.3884    3.5531    0.0205 H   0  0  0  0  0  0
   -0.8905    1.3669    0.0195 H   0  0  0  0  0  0
  1  6  1  0  0  0
  1  2  1  0  0  0
  1  7  2  0  0  0
  2  3  1  0  0  0
  2  9  2  0  0  0
  3  4  2  0  0  0
  4  5  1  0  0  0
  4 11  1  0  0  0
  5  6  2  0  0  0
  6 10  1  0  0  0
  7 12  1  0  0  0
  7  8  1  0  0  0
  8 13  1  0  0  0
  8  9  1  0  0  0
M  CHG  1  10  -1
M  END
> <s_m_entry_name>
Schrodinger_fragment_359

> <i_m_number_of_atoms>
14

> <r_m_molecular_weight>
136.11383

> <s_m_molecular_formula>
C5H4N4O1

> <r_epik_Ionization_Penalty>
  1.2662

> <r_epik_Ionization_Penalty_Charging>
  0.0000

> <r_epik_Ionization_Penalty_Neutral>
  1.2662

> <r_epik_State_Penalty>
  0.9440

> <i_epik_Tot_Q>
-1

> <r_epik_Metal_State_Penalty>
  0.3502

> <b_epik_Metal_Only>
0

> <s_m_entry_id>
4773

> <s_canvas_Unique_SMILES_Stereo>
c1[nH]nc(c12)ncnc2[O-]

$$$$
Schrodinger_fragment_298_c
                    3D
 Structure written by MMmdl.
 14 15  0  0  1  0            999 V2000
    2.1624    2.1488    0.0240 C   0  0  0  0  0  0
    2.1416    0.7486    0.0247 C   0  0  0  0  0  0
    3.3156    0.1182    0.0269 N   0  0  0  0  0  0
    4.5231    0.8158    0.0284 C   0  0  0  0  0  0
    4.6304    2.1208    0.0280 N   0  0  0  0  0  0
    3.4602    2.9020    0.0257 C   0  0  0  0  0  0
    0.8652    2.5624    0.0217 C   0  0  0  0  0  0
    0.1445    1.3740    0.0211 N   0  0  0  0  0  0
    0.9194    0.2449    0.0230 N   0  0  0  0  0  0
    3.4471    4.1318    0.0251 O   0  0  0  0  0  0
    5.4073    0.1753    0.0302 H   0  0  0  0  0  0
    0.4090    3.5428    0.0205 H   0  0  0  0  0  0
   -0.8725    1.3371    0.0195 H   0  0  0  0  0  0
    3.2738   -0.8955    0.0273 H   0  0  0  0  0  0
  1  6  1  0  0  0
  1  2  1  0  0  0
  1  7  2  0  0  0
  2  3  1  0  0  0
  2  9  2  0  0  0
  3  4  1  0  0  0
  3 14  1  0  0  0
  4  5  2  0  0  0
  4 11  1  0  0  0
  5  6  1  0  0  0
  6 10  2  0  0  0
  7 12  1  0  0  0
  7  8  1  0  0  0
  8 13  1  0  0  0
  8  9  1  0  0  0
M  END
> <s_m_entry_name>
Schrodinger_fragment_359

> <i_m_number_of_atoms>
14

> <r_m_molecular_weight>
136.11383

> <s_m_molecular_formula>
C5H4N4O1

> <r_epik_Ionization_Penalty>
  1.0153

> <r_epik_Ionization_Penalty_Charging>
  1.0153

> <r_epik_Ionization_Penalty_Neutral>
  0.0000

> <r_epik_State_Penalty>
  1.8416

> <i_epik_Tot_Q>
0

> <r_epik_Metal_State_Penalty>
  2.3927

> <b_epik_Metal_Only>
0

> <s_m_entry_id>
4774

> <s_canvas_Unique_SMILES_Stereo>
c1[nH]nc(c12)[nH]cnc2=O

$$$$
Schrodinger_fragment_298_d
                    3D
 Structure written by MMmdl.
 14 15  0  0  1  0            999 V2000
    2.1774    2.1020    0.0240 C   0  0  0  0  0  0
    2.2166    0.7627    0.0248 C   0  0  0  0  0  0
    3.4043    0.0672    0.0270 N   0  0  0  0  0  0
    4.5863    0.8084    0.0286 C   0  0  0  0  0  0
    4.6504    2.1193    0.0280 N   0  0  0  0  0  0
    3.4600    2.8795    0.0257 C   0  0  0  0  0  0
    0.8118    2.4833    0.0217 C   0  0  0  0  0  0
    0.0441    1.3818    0.0210 N   0  0  0  0  0  0
    0.9138    0.3225    0.0229 N   0  0  0  0  0  0
    3.4224    4.1086    0.0250 O   0  0  0  0  0  0
    5.4927    0.1993    0.0303 H   0  0  0  0  0  0
    0.3679    3.4691    0.0205 H   0  0  0  0  0  0
    0.6118   -0.6485    0.0229 H   0  0  0  0  0  0
    3.3984   -0.9489    0.0275 H   0  0  0  0  0  0
  1  6  1  0  0  0
  1  7  1  0  0  0
  1  2  2  0  0  0
  2  3  1  0  0  0
  2  9  1  0  0  0
  3  4  1  0  0  0
  3 14  1  0  0  0
  4  5  2  0  0  0
  4 11  1  0  0  0
  5  6  1  0  0  0
  6 10  2  0  0  0
  7 12  1  0  0  0
  7  8  2  0  0  0
  8  9  1  0  0  0
  9 13  1  0  0  0
M  END
> <s_m_entry_name>
Schrodinger_fragment_359

> <i_m_number_of_atoms>
14

> <r_m_molecular_weight>
136.11383

> <s_m_molecular_formula>
C5H4N4O1

> <r_epik_Ionization_Penalty>
  8.9405

> <r_epik_Ionization_Penalty_Charging>
  8.9405

> <r_epik_Ionization_Penalty_Neutral>
  0.0000

> <r_epik_State_Penalty>
  1.8416

> <i_epik_Tot_Q>
0

> <r_epik_Metal_State_Penalty>
  2.3927

> <b_epik_Metal_Only>
0

> <s_m_entry_id>
4775

> <s_canvas_Unique_SMILES_Stereo>
c1n[nH]c(c12)[nH]cnc2=O

$$$$
Schrodinger_fragment_298_e
                    3D
 Structure written by MMmdl.
 13 14  0  0  1  0            999 V2000
    2.1943    2.1713    0.0240 C   0  0  0  0  0  0
    2.2834    0.7641    0.0249 C   0  0  0  0  0  0
    3.4230    0.0240    0.0271 N   0  0  0  0  0  0
    4.5060    0.7917    0.0284 C   0  0  0  0  0  0
    4.5594    2.1293    0.0279 N   0  0  0  0  0  0
    3.4238    2.8378    0.0257 C   0  0  0  0  0  0
    0.7886    2.4708    0.0216 C   0  0  0  0  0  0
    0.0662    1.3713    0.0210 N   0  0  0  0  0  0
    0.9666    0.3459    0.0230 N   0  0  0  0  0  0
    3.5678    4.1871    0.0252 O   0  5  0  0  0  0
    5.4552    0.2758    0.0302 H   0  0  0  0  0  0
    0.3058    3.4393    0.0204 H   0  0  0  0  0  0
    0.6697   -0.6240    0.0230 H   0  0  0  0  0  0
  1  2  2  0  0  0
  1  6  1  0  0  0
  1  7  1  0  0  0
  2  3  1  0  0  0
  2  9  1  0  0  0
  3  4  2  0  0  0
  4  5  1  0  0  0
  4 11  1  0  0  0
  5  6  2  0  0  0
  6 10  1  0  0  0
  7  8  2  0  0  0
  7 12  1  0  0  0
  8  9  1  0  0  0
  9 13  1  0  0  0
M  CHG  1  10  -1
M  END
> <s_m_entry_name>
Schrodinger_fragment_359

> <i_m_number_of_atoms>
14

> <r_m_molecular_weight>
136.11383

> <s_m_molecular_formula>
C5H4N4O1

> <r_epik_Ionization_Penalty>
  1.4742

> <r_epik_Ionization_Penalty_Charging>
  0.0000

> <r_epik_Ionization_Penalty_Neutral>
  1.4742

> <r_epik_State_Penalty>
  2.0648

> <i_epik_Tot_Q>
-1

> <r_epik_Metal_State_Penalty>
  1.1482

> <b_epik_Metal_Only>
0

> <s_m_entry_id>
4776

> <s_canvas_Unique_SMILES_Stereo>
c1n[nH]c(c12)ncnc2[O-]

$$$$
Schrodinger_fragment_299
                    3D
 Structure written by MMmdl.
 17 18  0  0  1  0            999 V2000
    2.3924   -2.2635   -0.0021 C   0  0  0  0  0  0
    2.4523   -3.6140    0.0297 C   0  0  0  0  0  0
    3.6265   -4.3470    0.0856 N   0  0  0  0  0  0
    4.7159   -3.6180    0.1065 C   0  0  0  0  0  0
    4.7413   -2.2070    0.0763 N   0  0  0  0  0  0
    3.6330   -1.4468    0.0219 C   0  0  0  0  0  0
    1.0235   -1.9050   -0.0564 C   0  0  0  0  0  0
    0.2735   -3.0143   -0.0575 N   0  0  0  0  0  0
    1.1488   -4.0631   -0.0047 N   0  0  0  0  0  0
    3.6244   -0.2140   -0.0055 O   0  0  0  0  0  0
    0.6586   -5.4257    0.0087 C   0  0  0  0  0  0
    5.7118   -4.0619    0.1500 H   0  0  0  0  0  0
    5.6358   -1.7406    0.0963 H   0  0  0  0  0  0
    0.5657   -0.9265   -0.0935 H   0  0  0  0  0  0
   -0.4311   -5.4466   -0.0252 H   0  0  0  0  0  0
    0.9952   -5.9257    0.9170 H   0  0  0  0  0  0
    1.0509   -5.9630   -0.8549 H   0  0  0  0  0  0
  1  2  2  0  0  0
  1  6  1  0  0  0
  1  7  1  0  0  0
  2  3  1  0  0  0
  2  9  1  0  0  0
  3  4  2  0  0  0
  4  5  1  0  0  0
  4 12  1  0  0  0
  5  6  1  0  0  0
  5 13  1  0  0  0
  6 10  2  0  0  0
  7  8  2  0  0  0
  7 14  1  0  0  0
  8  9  1  0  0  0
  9 11  1  0  0  0
 11 15  1  0  0  0
 11 16  1  0  0  0
 11 17  1  0  0  0
M  END
> <s_m_entry_name>
Schrodinger_fragment_361

> <i_m_number_of_atoms>
17

> <r_m_molecular_weight>
150.14092

> <s_m_molecular_formula>
C6H6N4O1

> <r_epik_Ionization_Penalty>
  0.0372

> <r_epik_Ionization_Penalty_Charging>
  0.0372

> <r_epik_Ionization_Penalty_Neutral>
  0.0000

> <r_epik_State_Penalty>
  0.0372

> <i_epik_Tot_Q>
0

> <r_epik_Metal_State_Penalty>
  0.4249

> <b_epik_Metal_Only>
0

> <s_m_entry_id>
4777

> <s_canvas_Unique_SMILES_Stereo>
c1nn(C)c(c12)nc[nH]c2=O

$$$$
Schrodinger_fragment_299_a
                    3D
 Structure written by MMmdl.
 16 17  0  0  1  0            999 V2000
    2.3813   -2.2126   -0.0035 C   0  0  0  0  0  0
    2.4772   -3.6186    0.0308 C   0  0  0  0  0  0
    3.6225   -4.3523    0.0859 N   0  0  0  0  0  0
    4.6976   -3.5775    0.1053 C   0  0  0  0  0  0
    4.7428   -2.2402    0.0772 N   0  0  0  0  0  0
    3.6048   -1.5390    0.0231 C   0  0  0  0  0  0
    0.9764   -1.9239   -0.0575 C   0  0  0  0  0  0
    0.2608   -3.0268   -0.0575 N   0  0  0  0  0  0
    1.1579   -4.0532   -0.0045 N   0  0  0  0  0  0
    3.7409   -0.1892   -0.0022 O   0  5  0  0  0  0
    0.6667   -5.4174    0.0086 C   0  0  0  0  0  0
    5.6496   -4.0863    0.1489 H   0  0  0  0  0  0
    0.4876   -0.9596   -0.0953 H   0  0  0  0  0  0
   -0.4229   -5.4421   -0.0252 H   0  0  0  0  0  0
    1.0064   -5.9159    0.9165 H   0  0  0  0  0  0
    1.0622   -5.9530   -0.8545 H   0  0  0  0  0  0
  1  2  2  0  0  0
  1  6  1  0  0  0
  1  7  1  0  0  0
  2  3  1  0  0  0
  2  9  1  0  0  0
  3  4  2  0  0  0
  4  5  1  0  0  0
  4 12  1  0  0  0
  5  6  2  0  0  0
  6 10  1  0  0  0
  7  8  2  0  0  0
  7 13  1  0  0  0
  8  9  1  0  0  0
  9 11  1  0  0  0
 11 14  1  0  0  0
 11 15  1  0  0  0
 11 16  1  0  0  0
M  CHG  1  10  -1
M  END
> <s_m_entry_name>
Schrodinger_fragment_361

> <i_m_number_of_atoms>
17

> <r_m_molecular_weight>
150.14092

> <s_m_molecular_formula>
C6H6N4O1

> <r_epik_Ionization_Penalty>
  1.6585

> <r_epik_Ionization_Penalty_Charging>
  0.0000

> <r_epik_Ionization_Penalty_Neutral>
  1.6585

> <r_epik_State_Penalty>
  1.6585

> <i_epik_Tot_Q>
-1

> <r_epik_Metal_State_Penalty>
  0.3968

> <b_epik_Metal_Only>
0

> <s_m_entry_id>
4778

> <s_canvas_Unique_SMILES_Stereo>
c1nn(C)c(c12)ncnc2[O-]

$$$$
Schrodinger_fragment_300
                    3D
 Structure written by MMmdl.
 20 21  0  0  1  0            999 V2000
    2.3632   -2.2569    0.0203 C   0  0  0  0  0  0
    2.4378   -3.6053    0.0234 C   0  0  0  0  0  0
    3.6176   -4.3258    0.0307 N   0  0  0  0  0  0
    4.6997   -3.5871    0.0343 C   0  0  0  0  0  0
    4.7292   -2.1657    0.0313 N   0  0  0  0  0  0
    3.5918   -1.4230    0.0245 C   0  0  0  0  0  0
    0.9897   -1.9130    0.0128 C   0  0  0  0  0  0
    0.2517   -3.0298    0.0115 N   0  0  0  0  0  0
    1.1391   -4.0691    0.0179 N   0  0  0  0  0  0
    3.5362   -0.1885    0.0217 O   0  0  0  0  0  0
    0.6647   -5.4373    0.0182 C   0  0  0  0  0  0
    6.0594   -1.5485    0.0359 C   0  0  0  0  0  0
    5.6925   -4.0406    0.0401 H   0  0  0  0  0  0
    0.5206   -0.9391    0.0085 H   0  0  0  0  0  0
   -0.4252   -5.4702    0.0131 H   0  0  0  0  0  0
    1.0311   -5.9504    0.9075 H   0  0  0  0  0  0
    1.0395   -5.9537   -0.8657 H   0  0  0  0  0  0
    6.0285   -0.4580    0.0331 H   0  0  0  0  0  0
    6.6269   -1.8556   -0.8438 H   0  0  0  0  0  0
    6.6189   -1.8514    0.9221 H   0  0  0  0  0  0
  1  2  2  0  0  0
  1  6  1  0  0  0
  1  7  1  0  0  0
  2  3  1  0  0  0
  2  9  1  0  0  0
  3  4  2  0  0  0
  4  5  1  0  0  0
  4 13  1  0  0  0
  5  6  1  0  0  0
  5 12  1  0  0  0
  6 10  2  0  0  0
  7  8  2  0  0  0
  7 14  1  0  0  0
  8  9  1  0  0  0
  9 11  1  0  0  0
 11 15  1  0  0  0
 11 16  1  0  0  0
 11 17  1  0  0  0
 12 18  1  0  0  0
 12 19  1  0  0  0
 12 20  1  0  0  0
M  END
> <s_m_entry_name>
Schrodinger_fragment_362

> <i_m_number_of_atoms>
20

> <r_m_molecular_weight>
164.16801

> <s_m_molecular_formula>
C7H8N4O1

> <r_epik_Ionization_Penalty>
  0.0000

> <r_epik_Ionization_Penalty_Charging>
  0.0000

> <r_epik_Ionization_Penalty_Neutral>
  0.0000

> <r_epik_State_Penalty>
  0.0000

> <i_epik_Tot_Q>
0

> <r_epik_Metal_State_Penalty>
  0.0000

> <b_epik_Metal_Only>
0

> <s_m_entry_id>
4779

> <s_canvas_Unique_SMILES_Stereo>
c1nn(C)c(c12)ncn(C)c2=O

$$$$
Schrodinger_fragment_301
                    3D
 Structure written by MMmdl.
 17 18  0  0  1  0            999 V2000
    2.3609   -2.2447    0.0237 C   0  0  0  0  0  0
    2.4332   -3.5940    0.0238 C   0  0  0  0  0  0
    3.6095   -4.3175    0.0226 N   0  0  0  0  0  0
    4.6946   -3.5815    0.0215 C   0  0  0  0  0  0
    4.7285   -2.1599    0.0216 N   0  0  0  0  0  0
    3.5932   -1.4134    0.0223 C   0  0  0  0  0  0
    0.9870   -1.8958    0.0254 C   0  0  0  0  0  0
    0.2429   -3.0104    0.0265 N   0  0  0  0  0  0
    1.1343   -4.0478    0.0255 N   0  0  0  0  0  0
    3.5415   -0.1786    0.0220 O   0  0  0  0  0  0
    6.0606   -1.5468    0.0208 C   0  0  0  0  0  0
    5.6861   -4.0379    0.0204 H   0  0  0  0  0  0
    0.5223   -0.9195    0.0259 H   0  0  0  0  0  0
    0.8529   -5.0264    0.0261 H   0  0  0  0  0  0
    6.0331   -0.4563    0.0221 H   0  0  0  0  0  0
    6.6221   -1.8528   -0.8632 H   0  0  0  0  0  0
    6.6241   -1.8547    0.9027 H   0  0  0  0  0  0
  1  2  2  0  0  0
  1  6  1  0  0  0
  1  7  1  0  0  0
  2  3  1  0  0  0
  2  9  1  0  0  0
  3  4  2  0  0  0
  4  5  1  0  0  0
  4 12  1  0  0  0
  5  6  1  0  0  0
  5 11  1  0  0  0
  6 10  2  0  0  0
  7  8  2  0  0  0
  7 13  1  0  0  0
  8  9  1  0  0  0
  9 14  1  0  0  0
 11 15  1  0  0  0
 11 16  1  0  0  0
 11 17  1  0  0  0
M  END
> <s_m_entry_name>
Schrodinger_fragment_363

> <i_m_number_of_atoms>
17

> <r_m_molecular_weight>
150.14092

> <s_m_molecular_formula>
C6H6N4O1

> <r_epik_Ionization_Penalty>
  0.0000

> <r_epik_Ionization_Penalty_Charging>
  0.0000

> <r_epik_Ionization_Penalty_Neutral>
  0.0000

> <r_epik_State_Penalty>
  0.4107

> <i_epik_Tot_Q>
0

> <r_epik_Metal_State_Penalty>
  0.4107

> <b_epik_Metal_Only>
0

> <s_m_entry_id>
4780

> <s_canvas_Unique_SMILES_Stereo>
O=c1n(C)cnc(c12)[nH]nc2

$$$$
Schrodinger_fragment_301_a
                    3D
 Structure written by MMmdl.
 17 18  0  0  1  0            999 V2000
    2.3220   -2.1745    0.0239 C   0  0  0  0  0  0
    2.3522   -3.5778    0.0237 C   0  0  0  0  0  0
    3.5533   -4.2863    0.0222 N   0  0  0  0  0  0
    4.6505   -3.5756    0.0213 C   0  0  0  0  0  0
    4.7019   -2.1553    0.0217 N   0  0  0  0  0  0
    3.5822   -1.3834    0.0226 C   0  0  0  0  0  0
    1.0152   -1.7938    0.0256 C   0  0  0  0  0  0
    0.3273   -2.9985    0.0264 N   0  0  0  0  0  0
    1.1360   -4.1018    0.0252 N   0  0  0  0  0  0
    3.5611   -0.1474    0.0225 O   0  0  0  0  0  0
    6.0450   -1.5655    0.0212 C   0  0  0  0  0  0
    5.6339   -4.0490    0.0201 H   0  0  0  0  0  0
    0.5356   -0.8244    0.0264 H   0  0  0  0  0  0
   -0.6889   -3.0647    0.0278 H   0  0  0  0  0  0
    6.0386   -0.4746    0.0229 H   0  0  0  0  0  0
    6.6012   -1.8810   -0.8628 H   0  0  0  0  0  0
    6.6030   -1.8837    0.9030 H   0  0  0  0  0  0
  1  6  1  0  0  0
  1  2  1  0  0  0
  1  7  2  0  0  0
  2  3  1  0  0  0
  2  9  2  0  0  0
  3  4  2  0  0  0
  4  5  1  0  0  0
  4 12  1  0  0  0
  5  6  1  0  0  0
  5 11  1  0  0  0
  6 10  2  0  0  0
  7 13  1  0  0  0
  7  8  1  0  0  0
  8 14  1  0  0  0
  8  9  1  0  0  0
 11 15  1  0  0  0
 11 16  1  0  0  0
 11 17  1  0  0  0
M  END
> <s_m_entry_name>
Schrodinger_fragment_363

> <i_m_number_of_atoms>
17

> <r_m_molecular_weight>
150.14092

> <s_m_molecular_formula>
C6H6N4O1

> <r_epik_Ionization_Penalty>
  0.0000

> <r_epik_Ionization_Penalty_Charging>
  0.0000

> <r_epik_Ionization_Penalty_Neutral>
  0.0000

> <r_epik_State_Penalty>
  0.4107

> <i_epik_Tot_Q>
0

> <r_epik_Metal_State_Penalty>
  0.4107

> <b_epik_Metal_Only>
0

> <s_m_entry_id>
4781

> <s_canvas_Unique_SMILES_Stereo>
O=c1n(C)cnc(c12)n[nH]c2

$$$$
Schrodinger_fragment_302
                    3D
 Structure written by MMmdl.
 14 15  0  0  1  0            999 V2000
    3.5882    2.1116    0.0248 C   0  0  0  0  0  0
    3.6168    0.7403    0.0254 C   0  0  0  0  0  0
    4.7587    0.0360    0.0267 N   0  0  0  0  0  0
    5.8714    0.7798    0.0274 C   0  0  0  0  0  0
    5.9513    2.1171    0.0269 N   0  0  0  0  0  0
    4.7942    2.8152    0.0256 C   0  0  0  0  0  0
    2.2483    2.5113    0.0235 N   0  0  0  0  0  0
    1.4698    1.4181    0.0233 C   0  0  0  0  0  0
    2.2778    0.3456    0.0244 N   0  0  0  0  0  0
    0.2379    1.4074    0.0222 O   0  0  0  0  0  0
    6.8080    0.2429    0.0284 H   0  0  0  0  0  0
    4.8402    3.8943    0.0252 H   0  0  0  0  0  0
    1.9312    3.4724    0.0228 H   0  0  0  0  0  0
    1.9831   -0.6176    0.0245 H   0  0  0  0  0  0
  1  2  2  0  0  0
  1  6  1  0  0  0
  1  7  1  0  0  0
  2  3  1  0  0  0
  2  9  1  0  0  0
  3  4  2  0  0  0
  4  5  1  0  0  0
  4 11  1  0  0  0
  5  6  2  0  0  0
  6 12  1  0  0  0
  7  8  1  0  0  0
  7 13  1  0  0  0
  8  9  1  0  0  0
  8 10  2  0  0  0
  9 14  1  0  0  0
M  END
> <s_m_entry_name>
Schrodinger_fragment_365

> <i_m_number_of_atoms>
14

> <r_m_molecular_weight>
136.11383

> <s_m_molecular_formula>
C5H4N4O1

> <r_epik_Ionization_Penalty>
  0.0002

> <r_epik_Ionization_Penalty_Charging>
  0.0001

> <r_epik_Ionization_Penalty_Neutral>
  0.0002

> <r_epik_State_Penalty>
  0.0000

> <i_epik_Tot_Q>
0

> <r_epik_Metal_State_Penalty>
  0.1627

> <b_epik_Metal_Only>
0

> <s_m_entry_id>
4782

> <s_canvas_Unique_SMILES_Stereo>
[nH]1c(=O)[nH]c(c12)ncnc2

$$$$
Schrodinger_fragment_302_a
                    3D
 Structure written by MMmdl.
 13 14  0  0  1  0            999 V2000
    3.5375    2.1546    0.0248 C   0  0  0  0  0  0
    3.6275    0.7373    0.0254 C   0  0  0  0  0  0
    4.7560   -0.0143    0.0267 N   0  0  0  0  0  0
    5.8469    0.7607    0.0274 C   0  0  0  0  0  0
    5.9205    2.0975    0.0269 N   0  0  0  0  0  0
    4.7791    2.8333    0.0256 C   0  0  0  0  0  0
    2.2077    2.5739    0.0234 N   0  0  0  0  0  0
    1.5586    1.4210    0.0233 C   0  0  0  0  0  0
    2.3090    0.3207    0.0244 N   0  0  0  0  0  0
    0.2386    1.2946    0.0222 O   0  5  0  0  0  0
    6.7933    0.2381    0.0284 H   0  0  0  0  0  0
    4.8497    3.9116    0.0252 H   0  0  0  0  0  0
    1.9658   -0.6382    0.0245 H   0  0  0  0  0  0
  1  2  2  0  0  0
  1  6  1  0  0  0
  1  7  1  0  0  0
  2  3  1  0  0  0
  2  9  1  0  0  0
  3  4  2  0  0  0
  4  5  1  0  0  0
  4 11  1  0  0  0
  5  6  2  0  0  0
  6 12  1  0  0  0
  7  8  2  0  0  0
  8  9  1  0  0  0
  8 10  1  0  0  0
  9 13  1  0  0  0
M  CHG  1  10  -1
M  END
> <s_m_entry_name>
Schrodinger_fragment_365

> <i_m_number_of_atoms>
14

> <r_m_molecular_weight>
136.11383

> <s_m_molecular_formula>
C5H4N4O1

> <r_epik_Ionization_Penalty>
  5.2883

> <r_epik_Ionization_Penalty_Charging>
  0.0271

> <r_epik_Ionization_Penalty_Neutral>
  5.2612

> <r_epik_State_Penalty>
  5.2609

> <i_epik_Tot_Q>
-1

> <r_epik_Metal_State_Penalty>
  1.4080

> <b_epik_Metal_Only>
1

> <s_m_entry_id>
4783

> <s_canvas_Unique_SMILES_Stereo>
n1c([O-])[nH]c(c12)ncnc2

$$$$
Schrodinger_fragment_302_b
                    3D
 Structure written by MMmdl.
 13 14  0  0  1  0            999 V2000
    3.5944    2.1920    0.0248 C   0  0  0  0  0  0
    3.6000    0.7760    0.0254 C   0  0  0  0  0  0
    4.7042    0.0366    0.0267 N   0  0  0  0  0  0
    5.8238    0.7728    0.0274 C   0  0  0  0  0  0
    5.9518    2.1057    0.0269 N   0  0  0  0  0  0
    4.8285    2.8542    0.0256 C   0  0  0  0  0  0
    2.2507    2.5405    0.0235 N   0  0  0  0  0  0
    1.5733    1.3927    0.0234 C   0  0  0  0  0  0
    2.2957    0.2836    0.0244 N   0  0  0  0  0  0
    0.2474    1.4316    0.0222 O   0  5  0  0  0  0
    6.7490    0.2142    0.0284 H   0  0  0  0  0  0
    4.9152    3.9317    0.0253 H   0  0  0  0  0  0
    1.8357    3.4739    0.0228 H   0  0  0  0  0  0
  1  2  2  0  0  0
  1  6  1  0  0  0
  1  7  1  0  0  0
  2  3  1  0  0  0
  2  9  1  0  0  0
  3  4  2  0  0  0
  4  5  1  0  0  0
  4 11  1  0  0  0
  5  6  2  0  0  0
  6 12  1  0  0  0
  7  8  1  0  0  0
  7 13  1  0  0  0
  8  9  2  0  0  0
  8 10  1  0  0  0
M  CHG  1  10  -1
M  END
> <s_m_entry_name>
Schrodinger_fragment_365

> <i_m_number_of_atoms>
14

> <r_m_molecular_weight>
136.11383

> <s_m_molecular_formula>
C5H4N4O1

> <r_epik_Ionization_Penalty>
  5.0628

> <r_epik_Ionization_Penalty_Charging>
  0.0271

> <r_epik_Ionization_Penalty_Neutral>
  5.0357

> <r_epik_State_Penalty>
  4.9554

> <i_epik_Tot_Q>
-1

> <r_epik_Metal_State_Penalty>
  1.1351

> <b_epik_Metal_Only>
1

> <s_m_entry_id>
4784

> <s_canvas_Unique_SMILES_Stereo>
[nH]1c([O-])nc(c12)ncnc2

$$$$
Schrodinger_fragment_303
                    3D
 Structure written by MMmdl.
 17 18  0  0  1  0            999 V2000
    3.7647   -1.0058    0.0233 C   0  0  0  0  0  0
    3.8060   -2.3777    0.0259 C   0  0  0  0  0  0
    4.9534   -3.0761    0.0294 N   0  0  0  0  0  0
    6.0625   -2.3276    0.0301 C   0  0  0  0  0  0
    6.1339   -0.9905    0.0277 N   0  0  0  0  0  0
    4.9711   -0.3007    0.0243 C   0  0  0  0  0  0
    2.4194   -0.6106    0.0201 N   0  0  0  0  0  0
    1.6531   -1.7259    0.0208 C   0  0  0  0  0  0
    2.4741   -2.7867    0.0242 N   0  0  0  0  0  0
    0.4193   -1.7663    0.0186 O   0  0  0  0  0  0
    1.9685    0.7785    0.0167 C   0  0  0  0  0  0
    7.0019   -2.8595    0.0328 H   0  0  0  0  0  0
    5.0130    0.7786    0.0223 H   0  0  0  0  0  0
    2.1888   -3.7516    0.0255 H   0  0  0  0  0  0
    0.8793    0.8514    0.0144 H   0  0  0  0  0  0
    2.3372    1.2990   -0.8679 H   0  0  0  0  0  0
    2.3337    1.3022    0.9008 H   0  0  0  0  0  0
  1  2  2  0  0  0
  1  6  1  0  0  0
  1  7  1  0  0  0
  2  3  1  0  0  0
  2  9  1  0  0  0
  3  4  2  0  0  0
  4  5  1  0  0  0
  4 12  1  0  0  0
  5  6  2  0  0  0
  6 13  1  0  0  0
  7  8  1  0  0  0
  7 11  1  0  0  0
  8  9  1  0  0  0
  8 10  2  0  0  0
  9 14  1  0  0  0
 11 15  1  0  0  0
 11 16  1  0  0  0
 11 17  1  0  0  0
M  END
> <s_m_entry_name>
Schrodinger_fragment_366

> <i_m_number_of_atoms>
17

> <r_m_molecular_weight>
150.14092

> <s_m_molecular_formula>
C6H6N4O1

> <r_epik_Ionization_Penalty>
  0.0001

> <r_epik_Ionization_Penalty_Charging>
  0.0001

> <r_epik_Ionization_Penalty_Neutral>
  0.0000

> <r_epik_State_Penalty>
  0.0000

> <i_epik_Tot_Q>
0

> <r_epik_Metal_State_Penalty>
  0.0664

> <b_epik_Metal_Only>
0

> <s_m_entry_id>
4785

> <s_canvas_Unique_SMILES_Stereo>
Cn1c(=O)[nH]c(c12)ncnc2

$$$$
Schrodinger_fragment_303_a
                    3D
 Structure written by MMmdl.
 16 17  0  0  1  0            999 V2000
    3.7845   -0.9306    0.0232 C   0  0  0  0  0  0
    3.7943   -2.3453    0.0259 C   0  0  0  0  0  0
    4.8999   -3.0858    0.0293 N   0  0  0  0  0  0
    6.0203   -2.3512    0.0300 C   0  0  0  0  0  0
    6.1481   -1.0188    0.0278 N   0  0  0  0  0  0
    5.0217   -0.2733    0.0243 C   0  0  0  0  0  0
    2.4423   -0.5629    0.0201 N   0  0  0  0  0  0
    1.7725   -1.7343    0.0210 C   0  0  0  0  0  0
    2.4973   -2.8436    0.0244 N   0  0  0  0  0  0
    0.4414   -1.7411    0.0186 O   0  5  0  0  0  0
    1.9229    0.7988    0.0165 C   0  0  0  0  0  0
    6.9453   -2.9103    0.0328 H   0  0  0  0  0  0
    5.1050    0.8042    0.0225 H   0  0  0  0  0  0
    0.8324    0.8116    0.0143 H   0  0  0  0  0  0
    2.2749    1.3266   -0.8708 H   0  0  0  0  0  0
    2.2713    1.3298    0.9034 H   0  0  0  0  0  0
  1  2  2  0  0  0
  1  6  1  0  0  0
  1  7  1  0  0  0
  2  3  1  0  0  0
  2  9  1  0  0  0
  3  4  2  0  0  0
  4  5  1  0  0  0
  4 12  1  0  0  0
  5  6  2  0  0  0
  6 13  1  0  0  0
  7  8  1  0  0  0
  7 11  1  0  0  0
  8  9  2  0  0  0
  8 10  1  0  0  0
 11 14  1  0  0  0
 11 15  1  0  0  0
 11 16  1  0  0  0
M  CHG  1  10  -1
M  END
> <s_m_entry_name>
Schrodinger_fragment_366

> <i_m_number_of_atoms>
17

> <r_m_molecular_weight>
150.14092

> <s_m_molecular_formula>
C6H6N4O1

> <r_epik_Ionization_Penalty>
  5.3330

> <r_epik_Ionization_Penalty_Charging>
  0.0517

> <r_epik_Ionization_Penalty_Neutral>
  5.2813

> <r_epik_State_Penalty>
  5.2810

> <i_epik_Tot_Q>
-1

> <r_epik_Metal_State_Penalty>
  1.3295

> <b_epik_Metal_Only>
1

> <s_m_entry_id>
4786

> <s_canvas_Unique_SMILES_Stereo>
Cn1c([O-])nc(c12)ncnc2

$$$$
Schrodinger_fragment_304
                    3D
 Structure written by MMmdl.
 20 21  0  0  1  0            999 V2000
    3.7591   -1.8726    0.0231 C   0  0  0  0  0  0
    3.7944   -3.2440    0.0272 C   0  0  0  0  0  0
    4.9407   -3.9469    0.0299 N   0  0  0  0  0  0
    6.0509   -3.2036    0.0283 C   0  0  0  0  0  0
    6.1271   -1.8672    0.0244 N   0  0  0  0  0  0
    4.9675   -1.1731    0.0217 C   0  0  0  0  0  0
    2.4180   -1.4705    0.0212 N   0  0  0  0  0  0
    1.6433   -2.5803    0.0241 C   0  0  0  0  0  0
    2.4567   -3.6619    0.0277 N   0  0  0  0  0  0
    0.4068   -2.5973    0.0236 O   0  0  0  0  0  0
    1.9764   -0.0777    0.0171 C   0  0  0  0  0  0
    2.0584   -5.0663    0.0320 C   0  0  0  0  0  0
    6.9884   -3.7389    0.0305 H   0  0  0  0  0  0
    5.0139   -0.0940    0.0186 H   0  0  0  0  0  0
    0.8879    0.0037    0.0160 H   0  0  0  0  0  0
    2.3478    0.4396   -0.8682 H   0  0  0  0  0  0
    2.3463    0.4443    0.9004 H   0  0  0  0  0  0
    0.9741   -5.1847    0.0311 H   0  0  0  0  0  0
    2.4536   -5.5649    0.9173 H   0  0  0  0  0  0
    2.4557   -5.5710   -0.8489 H   0  0  0  0  0  0
  1  2  2  0  0  0
  1  6  1  0  0  0
  1  7  1  0  0  0
  2  3  1  0  0  0
  2  9  1  0  0  0
  3  4  2  0  0  0
  4  5  1  0  0  0
  4 13  1  0  0  0
  5  6  2  0  0  0
  6 14  1  0  0  0
  7  8  1  0  0  0
  7 11  1  0  0  0
  8  9  1  0  0  0
  8 10  2  0  0  0
  9 12  1  0  0  0
 11 15  1  0  0  0
 11 16  1  0  0  0
 11 17  1  0  0  0
 12 18  1  0  0  0
 12 19  1  0  0  0
 12 20  1  0  0  0
M  END
> <s_m_entry_name>
Schrodinger_fragment_367

> <i_m_number_of_atoms>
20

> <r_m_molecular_weight>
164.16801

> <s_m_molecular_formula>
C7H8N4O1

> <r_epik_Ionization_Penalty>
  0.0000

> <r_epik_Ionization_Penalty_Charging>
  0.0000

> <r_epik_Ionization_Penalty_Neutral>
  0.0000

> <r_epik_State_Penalty>
  0.0000

> <i_epik_Tot_Q>
0

> <r_epik_Metal_State_Penalty>
  0.0000

> <b_epik_Metal_Only>
0

> <s_m_entry_id>
4787

> <s_canvas_Unique_SMILES_Stereo>
Cn1c(=O)n(C)c(c12)ncnc2

$$$$
Schrodinger_fragment_305
                    3D
 Structure written by MMmdl.
 13 14  0  0  1  0            999 V2000
    2.1176    2.1440    0.0239 C   0  0  0  0  0  0
    2.2419    0.7203    0.0249 C   0  0  0  0  0  0
    3.4066    0.0370    0.0272 N   0  0  0  0  0  0
    4.4873    0.8121    0.0285 C   0  0  0  0  0  0
    4.5135    2.1498    0.0278 N   0  0  0  0  0  0
    3.3408    2.8061    0.0255 C   0  0  0  0  0  0
    0.8386    2.5518    0.0215 N   0  0  0  0  0  0
    0.1511    1.3797    0.0211 N   0  0  0  0  0  0
    0.9523    0.2552    0.0231 C   0  0  0  0  0  0
    3.4606    4.1619    0.0249 O   0  5  0  0  0  0
    5.4430    0.3063    0.0303 H   0  0  0  0  0  0
   -0.8668    1.3547    0.0195 H   0  0  0  0  0  0
    0.5400   -0.7448    0.0230 H   0  0  0  0  0  0
  1  6  1  0  0  0
  1  2  1  0  0  0
  1  7  2  0  0  0
  2  3  1  0  0  0
  2  9  2  0  0  0
  3  4  2  0  0  0
  4  5  1  0  0  0
  4 11  1  0  0  0
  5  6  2  0  0  0
  6 10  1  0  0  0
  7  8  1  0  0  0
  8  9  1  0  0  0
  8 12  1  0  0  0
  9 13  1  0  0  0
M  CHG  1  10  -1
M  END
> <s_m_entry_name>
Schrodinger_fragment_368

> <i_m_number_of_atoms>
14

> <r_m_molecular_weight>
136.11383

> <s_m_molecular_formula>
C5H4N4O1

> <r_epik_Ionization_Penalty>
  0.2718

> <r_epik_Ionization_Penalty_Charging>
  0.0000

> <r_epik_Ionization_Penalty_Neutral>
  0.2718

> <r_epik_State_Penalty>
  0.4231

> <i_epik_Tot_Q>
-1

> <r_epik_Metal_State_Penalty>
  0.4165

> <b_epik_Metal_Only>
0

> <s_m_entry_id>
4788

> <s_canvas_Unique_SMILES_Stereo>
c1[nH]nc(c12)c([O-])ncn2

$$$$
Schrodinger_fragment_305_a
                    3D
 Structure written by MMmdl.
 14 15  0  0  1  0            999 V2000
    2.1962    2.1255    0.0240 C   0  0  0  0  0  0
    2.2528    0.7721    0.0249 C   0  0  0  0  0  0
    3.4505    0.0385    0.0273 N   0  0  0  0  0  0
    4.5480    0.7519    0.0286 C   0  0  0  0  0  0
    4.5587    2.1634    0.0278 N   0  0  0  0  0  0
    3.4398    2.9164    0.0256 C   0  0  0  0  0  0
    0.8810    2.5079    0.0216 N   0  0  0  0  0  0
    0.0668    1.4104    0.0209 N   0  0  0  0  0  0
    0.8923    0.3526    0.0229 C   0  0  0  0  0  0
    3.4393    4.1511    0.0249 O   0  0  0  0  0  0
    5.5445    0.3063    0.0305 H   0  0  0  0  0  0
    5.4471    2.6388    0.0290 H   0  0  0  0  0  0
    0.5535    3.4708    0.0205 H   0  0  0  0  0  0
    0.4848   -0.6492    0.0228 H   0  0  0  0  0  0
  1  2  2  0  0  0
  1  6  1  0  0  0
  1  7  1  0  0  0
  2  3  1  0  0  0
  2  9  1  0  0  0
  3  4  2  0  0  0
  4  5  1  0  0  0
  4 11  1  0  0  0
  5  6  1  0  0  0
  5 12  1  0  0  0
  6 10  2  0  0  0
  7  8  1  0  0  0
  7 13  1  0  0  0
  8  9  2  0  0  0
  9 14  1  0  0  0
M  END
> <s_m_entry_name>
Schrodinger_fragment_368

> <i_m_number_of_atoms>
14

> <r_m_molecular_weight>
136.11383

> <s_m_molecular_formula>
C5H4N4O1

> <r_epik_Ionization_Penalty>
  0.3767

> <r_epik_Ionization_Penalty_Charging>
  0.3767

> <r_epik_Ionization_Penalty_Neutral>
  0.0000

> <r_epik_State_Penalty>
  1.2211

> <i_epik_Tot_Q>
0

> <r_epik_Metal_State_Penalty>
  1.3604

> <b_epik_Metal_Only>
0

> <s_m_entry_id>
4789

> <s_canvas_Unique_SMILES_Stereo>
c1n[nH]c(c12)c(=O)[nH]cn2

$$$$
Schrodinger_fragment_305_b
                    3D
 Structure written by MMmdl.
 14 15  0  0  1  0            999 V2000
    2.1146    2.1517    0.0239 C   0  0  0  0  0  0
    2.2167    0.7354    0.0248 C   0  0  0  0  0  0
    3.4250    0.0275    0.0272 N   0  0  0  0  0  0
    4.5108    0.7523    0.0286 C   0  0  0  0  0  0
    4.5172    2.1580    0.0278 N   0  0  0  0  0  0
    3.4085    2.9221    0.0255 C   0  0  0  0  0  0
    0.8443    2.5484    0.0216 N   0  0  0  0  0  0
    0.1415    1.3815    0.0211 N   0  0  0  0  0  0
    0.9404    0.2543    0.0230 C   0  0  0  0  0  0
    3.4348    4.1580    0.0249 O   0  0  0  0  0  0
    5.5105    0.3141    0.0305 H   0  0  0  0  0  0
    5.4059    2.6314    0.0289 H   0  0  0  0  0  0
   -0.8763    1.3507    0.0194 H   0  0  0  0  0  0
    0.5387   -0.7505    0.0230 H   0  0  0  0  0  0
  1  6  1  0  0  0
  1  2  1  0  0  0
  1  7  2  0  0  0
  2  3  1  0  0  0
  2  9  2  0  0  0
  3  4  2  0  0  0
  4  5  1  0  0  0
  4 11  1  0  0  0
  5  6  1  0  0  0
  5 12  1  0  0  0
  6 10  2  0  0  0
  7  8  1  0  0  0
  8  9  1  0  0  0
  8 13  1  0  0  0
  9 14  1  0  0  0
M  END
> <s_m_entry_name>
Schrodinger_fragment_368

> <i_m_number_of_atoms>
14

> <r_m_molecular_weight>
136.11383

> <s_m_molecular_formula>
C5H4N4O1

> <r_epik_Ionization_Penalty>
  0.9350

> <r_epik_Ionization_Penalty_Charging>
  0.0000

> <r_epik_Ionization_Penalty_Neutral>
  0.9350

> <r_epik_State_Penalty>
  1.2211

> <i_epik_Tot_Q>
0

> <r_epik_Metal_State_Penalty>
  1.3604

> <b_epik_Metal_Only>
0

> <s_m_entry_id>
4790

> <s_canvas_Unique_SMILES_Stereo>
c1[nH]nc(c12)c(=O)[nH]cn2

$$$$
Schrodinger_fragment_305_c
                    3D
 Structure written by MMmdl.
 14 15  0  0  1  0            999 V2000
    2.0921    2.1118    0.0238 C   0  0  0  0  0  0
    2.1828    0.7004    0.0248 C   0  0  0  0  0  0
    3.4256    0.0574    0.0272 N   0  0  0  0  0  0
    4.5808    0.8263    0.0286 C   0  0  0  0  0  0
    4.6118    2.1323    0.0279 N   0  0  0  0  0  0
    3.4076    2.8659    0.0256 C   0  0  0  0  0  0
    0.8318    2.5371    0.0215 N   0  0  0  0  0  0
    0.1111    1.3844    0.0210 N   0  0  0  0  0  0
    0.8949    0.2478    0.0230 C   0  0  0  0  0  0
    3.3776    4.0968    0.0248 O   0  0  0  0  0  0
    5.5032    0.2413    0.0305 H   0  0  0  0  0  0
   -0.9065    1.3687    0.0194 H   0  0  0  0  0  0
    0.4745   -0.7487    0.0229 H   0  0  0  0  0  0
    3.4567   -0.9602    0.0278 H   0  0  0  0  0  0
  1  6  1  0  0  0
  1  2  1  0  0  0
  1  7  2  0  0  0
  2  3  1  0  0  0
  2  9  2  0  0  0
  3  4  1  0  0  0
  3 14  1  0  0  0
  4  5  2  0  0  0
  4 11  1  0  0  0
  5  6  1  0  0  0
  6 10  2  0  0  0
  7  8  1  0  0  0
  8  9  1  0  0  0
  8 12  1  0  0  0
  9 13  1  0  0  0
M  END
> <s_m_entry_name>
Schrodinger_fragment_368

> <i_m_number_of_atoms>
14

> <r_m_molecular_weight>
136.11383

> <s_m_molecular_formula>
C5H4N4O1

> <r_epik_Ionization_Penalty>
  0.9799

> <r_epik_Ionization_Penalty_Charging>
  0.9798

> <r_epik_Ionization_Penalty_Neutral>
  0.0000

> <r_epik_State_Penalty>
  1.2771

> <i_epik_Tot_Q>
0

> <r_epik_Metal_State_Penalty>
  1.4164

> <b_epik_Metal_Only>
0

> <s_m_entry_id>
4791

> <s_canvas_Unique_SMILES_Stereo>
n1[nH]cc(c12)[nH]cnc2=O

$$$$
Schrodinger_fragment_305_d
                    3D
 Structure written by MMmdl.
 13 14  0  0  1  0            999 V2000
    2.2136    2.1402    0.0240 C   0  0  0  0  0  0
    2.2625    0.7208    0.0249 C   0  0  0  0  0  0
    3.4233    0.0505    0.0272 N   0  0  0  0  0  0
    4.5096    0.8247    0.0285 C   0  0  0  0  0  0
    4.5690    2.1638    0.0279 N   0  0  0  0  0  0
    3.4171    2.8369    0.0256 C   0  0  0  0  0  0
    0.8705    2.4938    0.0216 N   0  0  0  0  0  0
    0.0558    1.4364    0.0209 N   0  0  0  0  0  0
    0.8885    0.3166    0.0229 C   0  0  0  0  0  0
    3.5202    4.1904    0.0250 O   0  5  0  0  0  0
    5.4582    0.3081    0.0304 H   0  0  0  0  0  0
    0.5666    3.4639    0.0206 H   0  0  0  0  0  0
    0.4945   -0.6903    0.0229 H   0  0  0  0  0  0
  1  2  2  0  0  0
  1  6  1  0  0  0
  1  7  1  0  0  0
  2  3  1  0  0  0
  2  9  1  0  0  0
  3  4  2  0  0  0
  4  5  1  0  0  0
  4 11  1  0  0  0
  5  6  2  0  0  0
  6 10  1  0  0  0
  7  8  1  0  0  0
  7 12  1  0  0  0
  8  9  2  0  0  0
  9 13  1  0  0  0
M  CHG  1  10  -1
M  END
> <s_m_entry_name>
Schrodinger_fragment_368

> <i_m_number_of_atoms>
14

> <r_m_molecular_weight>
136.11383

> <s_m_molecular_formula>
C5H4N4O1

> <r_epik_Ionization_Penalty>
  0.5726

> <r_epik_Ionization_Penalty_Charging>
  0.0000

> <r_epik_Ionization_Penalty_Neutral>
  0.5726

> <r_epik_State_Penalty>
  1.2912

> <i_epik_Tot_Q>
-1

> <r_epik_Metal_State_Penalty>
  0.9843

> <b_epik_Metal_Only>
0

> <s_m_entry_id>
4792

> <s_canvas_Unique_SMILES_Stereo>
c1n[nH]c(c12)c([O-])ncn2

$$$$
Schrodinger_fragment_305_e
                    3D
 Structure written by MMmdl.
 14 15  0  0  1  0            999 V2000
    2.1769    2.0760    0.0240 C   0  0  0  0  0  0
    2.2108    0.7237    0.0248 C   0  0  0  0  0  0
    3.4549    0.0717    0.0272 N   0  0  0  0  0  0
    4.6220    0.8288    0.0287 C   0  0  0  0  0  0
    4.6547    2.1366    0.0280 N   0  0  0  0  0  0
    3.4437    2.8604    0.0256 C   0  0  0  0  0  0
    0.8724    2.4961    0.0216 N   0  0  0  0  0  0
    0.0299    1.4260    0.0209 N   0  0  0  0  0  0
    0.8333    0.3533    0.0228 C   0  0  0  0  0  0
    3.3888    4.0897    0.0248 O   0  0  0  0  0  0
    5.5403    0.2374    0.0305 H   0  0  0  0  0  0
    0.5683    3.4664    0.0206 H   0  0  0  0  0  0
    0.3976   -0.6363    0.0227 H   0  0  0  0  0  0
    3.4728   -0.9465    0.0279 H   0  0  0  0  0  0
  1  2  2  0  0  0
  1  6  1  0  0  0
  1  7  1  0  0  0
  2  3  1  0  0  0
  2  9  1  0  0  0
  3  4  1  0  0  0
  3 14  1  0  0  0
  4  5  2  0  0  0
  4 11  1  0  0  0
  5  6  1  0  0  0
  6 10  2  0  0  0
  7  8  1  0  0  0
  7 12  1  0  0  0
  8  9  2  0  0  0
  9 13  1  0  0  0
M  END
> <s_m_entry_name>
Schrodinger_fragment_368

> <i_m_number_of_atoms>
14

> <r_m_molecular_weight>
136.11383

> <s_m_molecular_formula>
C5H4N4O1

> <r_epik_Ionization_Penalty>
  3.6779

> <r_epik_Ionization_Penalty_Charging>
  0.0000

> <r_epik_Ionization_Penalty_Neutral>
  3.6779

> <r_epik_State_Penalty>
  2.1452

> <i_epik_Tot_Q>
0

> <r_epik_Metal_State_Penalty>
  2.2845

> <b_epik_Metal_Only>
0

> <s_m_entry_id>
4793

> <s_canvas_Unique_SMILES_Stereo>
c1n[nH]c(c12)c(=O)nc[nH]2

$$$$
Schrodinger_fragment_305_f
                    3D
 Structure written by MMmdl.
 13 14  0  0  1  0            999 V2000
    2.1357    2.1386    0.0239 C   0  0  0  0  0  0
    2.2215    0.7282    0.0249 C   0  0  0  0  0  0
    3.4017    0.1027    0.0271 N   0  0  0  0  0  0
    4.5841    0.8306    0.0286 C   0  0  0  0  0  0
    4.6547    2.1354    0.0280 N   0  0  0  0  0  0
    3.4600    2.8847    0.0256 C   0  0  0  0  0  0
    0.8330    2.5010    0.0216 N   0  0  0  0  0  0
    0.1075    1.3759    0.0210 N   0  5  0  0  0  0
    0.8918    0.2575    0.0230 C   0  0  0  0  0  0
    3.4449    4.1160    0.0249 O   0  0  0  0  0  0
    5.4861    0.2150    0.0305 H   0  0  0  0  0  0
    0.4692   -0.7448    0.0228 H   0  0  0  0  0  0
    3.3794   -0.9118    0.0277 H   0  0  0  0  0  0
  1  6  1  0  0  0
  1  2  1  0  0  0
  1  7  2  0  0  0
  2  3  1  0  0  0
  2  9  2  0  0  0
  3  4  1  0  0  0
  3 13  1  0  0  0
  4  5  2  0  0  0
  4 11  1  0  0  0
  5  6  1  0  0  0
  6 10  2  0  0  0
  7  8  1  0  0  0
  8  9  1  0  0  0
  9 12  1  0  0  0
M  CHG  1   8  -1
M  END
> <s_m_entry_name>
Schrodinger_fragment_368

> <i_m_number_of_atoms>
14

> <r_m_molecular_weight>
136.11383

> <s_m_molecular_formula>
C5H4N4O1

> <r_epik_Ionization_Penalty>
  9.7581

> <r_epik_Ionization_Penalty_Charging>
  8.8477

> <r_epik_Ionization_Penalty_Neutral>
  0.9104

> <r_epik_State_Penalty>
  8.0637

> <i_epik_Tot_Q>
-1

> <r_epik_Metal_State_Penalty>
  4.1165

> <b_epik_Metal_Only>
1

> <s_m_entry_id>
4794

> <s_canvas_Unique_SMILES_Stereo>
c1[n-]nc(c12)c(=O)nc[nH]2

$$$$
Schrodinger_fragment_306
                    3D
 Structure written by MMmdl.
 17 18  0  0  1  0            999 V2000
    2.3834   -2.2232    0.0222 C   0  0  0  0  0  0
    2.4321   -3.5777   -0.0270 C   0  0  0  0  0  0
    3.6194   -4.3279    0.0025 N   0  0  0  0  0  0
    4.7239   -3.6318    0.0831 C   0  0  0  0  0  0
    4.7515   -2.2232    0.1382 N   0  0  0  0  0  0
    3.6438   -1.4538    0.1133 C   0  0  0  0  0  0
    1.0635   -1.8263   -0.0273 N   0  0  0  0  0  0
    0.2578   -2.9257   -0.1086 N   0  0  0  0  0  0
    1.0737   -3.9869   -0.1092 C   0  0  0  0  0  0
    3.6751   -0.2203    0.1618 O   0  0  0  0  0  0
    0.4857   -0.4963   -0.0048 C   0  0  0  0  0  0
    5.7135   -4.0915    0.1140 H   0  0  0  0  0  0
    5.6449   -1.7612    0.1995 H   0  0  0  0  0  0
    0.6607   -4.9845   -0.1674 H   0  0  0  0  0  0
   -0.6024   -0.5455   -0.0600 H   0  0  0  0  0  0
    0.8558    0.0796   -0.8534 H   0  0  0  0  0  0
    0.7692    0.0121    0.9171 H   0  0  0  0  0  0
  1  2  2  0  0  0
  1  6  1  0  0  0
  1  7  1  0  0  0
  2  3  1  0  0  0
  2  9  1  0  0  0
  3  4  2  0  0  0
  4  5  1  0  0  0
  4 12  1  0  0  0
  5  6  1  0  0  0
  5 13  1  0  0  0
  6 10  2  0  0  0
  7  8  1  0  0  0
  7 11  1  0  0  0
  8  9  2  0  0  0
  9 14  1  0  0  0
 11 15  1  0  0  0
 11 16  1  0  0  0
 11 17  1  0  0  0
M  END
> <s_m_entry_name>
Schrodinger_fragment_370

> <i_m_number_of_atoms>
17

> <r_m_molecular_weight>
150.14092

> <s_m_molecular_formula>
C6H6N4O1

> <r_epik_Ionization_Penalty>
  0.2111

> <r_epik_Ionization_Penalty_Charging>
  0.2111

> <r_epik_Ionization_Penalty_Neutral>
  0.0000

> <r_epik_State_Penalty>
  0.2784

> <i_epik_Tot_Q>
0

> <r_epik_Metal_State_Penalty>
  0.5653

> <b_epik_Metal_Only>
0

> <s_m_entry_id>
4795

> <s_canvas_Unique_SMILES_Stereo>
Cn1ncc(c12)nc[nH]c2=O

$$$$
Schrodinger_fragment_306_a
                    3D
 Structure written by MMmdl.
 16 17  0  0  1  0            999 V2000
    2.4056   -2.2022    0.0241 C   0  0  0  0  0  0
    2.4400   -3.6227   -0.0284 C   0  0  0  0  0  0
    3.5899   -4.3128    0.0016 N   0  0  0  0  0  0
    4.6861   -3.5589    0.0840 C   0  0  0  0  0  0
    4.7654   -2.2231    0.1389 N   0  0  0  0  0  0
    3.6244   -1.5284    0.1095 C   0  0  0  0  0  0
    1.0601   -1.8402   -0.0280 N   0  0  0  0  0  0
    0.2429   -2.8916   -0.1081 N   0  0  0  0  0  0
    1.0665   -4.0154   -0.1106 C   0  0  0  0  0  0
    3.7655   -0.1787    0.1678 O   0  5  0  0  0  0
    0.4836   -0.5097   -0.0055 C   0  0  0  0  0  0
    5.6257   -4.0913    0.1097 H   0  0  0  0  0  0
    0.6659   -5.0174   -0.1684 H   0  0  0  0  0  0
   -0.6052   -0.5516   -0.0604 H   0  0  0  0  0  0
    0.8555    0.0654   -0.8537 H   0  0  0  0  0  0
    0.7689   -0.0021    0.9162 H   0  0  0  0  0  0
  1  2  2  0  0  0
  1  6  1  0  0  0
  1  7  1  0  0  0
  2  3  1  0  0  0
  2  9  1  0  0  0
  3  4  2  0  0  0
  4  5  1  0  0  0
  4 12  1  0  0  0
  5  6  2  0  0  0
  6 10  1  0  0  0
  7  8  1  0  0  0
  7 11  1  0  0  0
  8  9  2  0  0  0
  9 13  1  0  0  0
 11 14  1  0  0  0
 11 15  1  0  0  0
 11 16  1  0  0  0
M  CHG  1  10  -1
M  END
> <s_m_entry_name>
Schrodinger_fragment_370

> <i_m_number_of_atoms>
17

> <r_m_molecular_weight>
150.14092

> <s_m_molecular_formula>
C6H6N4O1

> <r_epik_Ionization_Penalty>
  0.9140

> <r_epik_Ionization_Penalty_Charging>
  0.0000

> <r_epik_Ionization_Penalty_Neutral>
  0.9140

> <r_epik_State_Penalty>
  0.7813

> <i_epik_Tot_Q>
-1

> <r_epik_Metal_State_Penalty>
  0.3556

> <b_epik_Metal_Only>
0

> <s_m_entry_id>
4796

> <s_canvas_Unique_SMILES_Stereo>
Cn1ncc(c12)ncnc2[O-]

$$$$
Schrodinger_fragment_306_b
                    3D
 Structure written by MMmdl.
 17 18  0  0  1  0            999 V2000
    2.3550   -2.2736    0.0189 C   0  0  0  0  0  0
    2.3859   -3.6266   -0.0312 C   0  0  0  0  0  0
    3.6228   -4.2924    0.0040 N   0  0  0  0  0  0
    4.7943   -3.5495    0.0897 C   0  0  0  0  0  0
    4.8381   -2.2439    0.1416 N   0  0  0  0  0  0
    3.6352   -1.5065    0.1108 C   0  0  0  0  0  0
    1.0453   -1.8431   -0.0288 N   0  0  0  0  0  0
    0.2146   -2.9181   -0.1105 N   0  0  0  0  0  0
    1.0119   -3.9913   -0.1123 C   0  0  0  0  0  0
    3.6051   -0.2771    0.1562 O   0  0  0  0  0  0
    0.4989   -0.4996   -0.0043 C   0  0  0  0  0  0
    5.7063   -4.1502    0.1114 H   0  0  0  0  0  0
    0.5741   -4.9779   -0.1714 H   0  0  0  0  0  0
   -0.5901   -0.5233   -0.0585 H   0  0  0  0  0  0
    0.8807    0.0685   -0.8530 H   0  0  0  0  0  0
    0.7940    0.0010    0.9182 H   0  0  0  0  0  0
    3.6319   -5.3101   -0.0344 H   0  0  0  0  0  0
  1  2  2  0  0  0
  1  6  1  0  0  0
  1  7  1  0  0  0
  2  3  1  0  0  0
  2  9  1  0  0  0
  3  4  1  0  0  0
  3 17  1  0  0  0
  4  5  2  0  0  0
  4 12  1  0  0  0
  5  6  1  0  0  0
  6 10  2  0  0  0
  7  8  1  0  0  0
  7 11  1  0  0  0
  8  9  2  0  0  0
  9 13  1  0  0  0
 11 14  1  0  0  0
 11 15  1  0  0  0
 11 16  1  0  0  0
M  END
> <s_m_entry_name>
Schrodinger_fragment_370

> <i_m_number_of_atoms>
17

> <r_m_molecular_weight>
150.14092

> <s_m_molecular_formula>
C6H6N4O1

> <r_epik_Ionization_Penalty>
  0.7405

> <r_epik_Ionization_Penalty_Charging>
  0.7405

> <r_epik_Ionization_Penalty_Neutral>
  0.0000

> <r_epik_State_Penalty>
  1.3217

> <i_epik_Tot_Q>
0

> <r_epik_Metal_State_Penalty>
  1.6086

> <b_epik_Metal_Only>
0

> <s_m_entry_id>
4797

> <s_canvas_Unique_SMILES_Stereo>
Cn1ncc(c12)[nH]cnc2=O

$$$$
Schrodinger_fragment_307
                    3D
 Structure written by MMmdl.
 20 21  0  0  1  0            999 V2000
    2.3637   -2.2118    0.0044 C   0  0  0  0  0  0
    2.4257   -3.5647   -0.0287 C   0  0  0  0  0  0
    3.6186   -4.3000   -0.0165 N   0  0  0  0  0  0
    4.7168   -3.5924    0.0303 C   0  0  0  0  0  0
    4.7511   -2.1731    0.0678 N   0  0  0  0  0  0
    3.6139   -1.4223    0.0572 C   0  0  0  0  0  0
    1.0379   -1.8313   -0.0203 N   0  0  0  0  0  0
    0.2434   -2.9404   -0.0694 N   0  0  0  0  0  0
    1.0711   -3.9916   -0.0748 C   0  0  0  0  0  0
    3.5969   -0.1852    0.0883 O   0  0  0  0  0  0
    0.4434   -0.5084   -0.0018 C   0  0  0  0  0  0
    6.0864   -1.5663    0.1186 C   0  0  0  0  0  0
    5.7031   -4.0605    0.0440 H   0  0  0  0  0  0
    0.6690   -4.9947   -0.1109 H   0  0  0  0  0  0
   -0.6450   -0.5722   -0.0317 H   0  0  0  0  0  0
    0.7865    0.0612   -0.8658 H   0  0  0  0  0  0
    0.7405    0.0156    0.9070 H   0  0  0  0  0  0
    6.0665   -0.4760    0.1482 H   0  0  0  0  0  0
    6.6699   -1.8522   -0.7578 H   0  0  0  0  0  0
    6.6250   -1.9008    1.0065 H   0  0  0  0  0  0
  1  2  2  0  0  0
  1  6  1  0  0  0
  1  7  1  0  0  0
  2  3  1  0  0  0
  2  9  1  0  0  0
  3  4  2  0  0  0
  4  5  1  0  0  0
  4 13  1  0  0  0
  5  6  1  0  0  0
  5 12  1  0  0  0
  6 10  2  0  0  0
  7  8  1  0  0  0
  7 11  1  0  0  0
  8  9  2  0  0  0
  9 14  1  0  0  0
 11 15  1  0  0  0
 11 16  1  0  0  0
 11 17  1  0  0  0
 12 18  1  0  0  0
 12 19  1  0  0  0
 12 20  1  0  0  0
M  END
> <s_m_entry_name>
Schrodinger_fragment_371

> <i_m_number_of_atoms>
20

> <r_m_molecular_weight>
164.16801

> <s_m_molecular_formula>
C7H8N4O1

> <r_epik_Ionization_Penalty>
  0.0000

> <r_epik_Ionization_Penalty_Charging>
  0.0000

> <r_epik_Ionization_Penalty_Neutral>
  0.0000

> <r_epik_State_Penalty>
  0.0000

> <i_epik_Tot_Q>
0

> <r_epik_Metal_State_Penalty>
  0.0000

> <b_epik_Metal_Only>
0

> <s_m_entry_id>
4798

> <s_canvas_Unique_SMILES_Stereo>
Cn1ncc(c12)ncn(C)c2=O

$$$$
Schrodinger_fragment_308
                    3D
 Structure written by MMmdl.
 17 18  0  0  1  0            999 V2000
    2.3551   -2.2407    0.0236 C   0  0  0  0  0  0
    2.4272   -3.5918    0.0244 C   0  0  0  0  0  0
    3.6308   -4.3094    0.0239 N   0  0  0  0  0  0
    4.7199   -3.5843    0.0227 C   0  0  0  0  0  0
    4.7345   -2.1625    0.0218 N   0  0  0  0  0  0
    3.5857   -1.4300    0.0222 C   0  0  0  0  0  0
    1.0346   -1.8750    0.0244 N   0  0  0  0  0  0
    0.2339   -2.9819    0.0257 N   0  0  0  0  0  0
    1.0721   -4.0291    0.0257 C   0  0  0  0  0  0
    3.5351   -0.1936    0.0213 O   0  0  0  0  0  0
    6.0600   -1.5335    0.0205 C   0  0  0  0  0  0
    5.7132   -4.0375    0.0222 H   0  0  0  0  0  0
    0.6948   -0.9162    0.0241 H   0  0  0  0  0  0
    0.6774   -5.0360    0.0267 H   0  0  0  0  0  0
    6.0210   -0.4434    0.0209 H   0  0  0  0  0  0
    6.6250   -1.8340   -0.8631 H   0  0  0  0  0  0
    6.6271   -1.8345    0.9026 H   0  0  0  0  0  0
  1  2  2  0  0  0
  1  6  1  0  0  0
  1  7  1  0  0  0
  2  3  1  0  0  0
  2  9  1  0  0  0
  3  4  2  0  0  0
  4  5  1  0  0  0
  4 12  1  0  0  0
  5  6  1  0  0  0
  5 11  1  0  0  0
  6 10  2  0  0  0
  7  8  1  0  0  0
  7 13  1  0  0  0
  8  9  2  0  0  0
  9 14  1  0  0  0
 11 15  1  0  0  0
 11 16  1  0  0  0
 11 17  1  0  0  0
M  END
> <s_m_entry_name>
Schrodinger_fragment_372

> <i_m_number_of_atoms>
17

> <r_m_molecular_weight>
150.14092

> <s_m_molecular_formula>
C6H6N4O1

> <r_epik_Ionization_Penalty>
  0.0000

> <r_epik_Ionization_Penalty_Charging>
  0.0000

> <r_epik_Ionization_Penalty_Neutral>
  0.0000

> <r_epik_State_Penalty>
  0.4107

> <i_epik_Tot_Q>
0

> <r_epik_Metal_State_Penalty>
  0.4107

> <b_epik_Metal_Only>
0

> <s_m_entry_id>
4799

> <s_canvas_Unique_SMILES_Stereo>
n1cn(C)c(=O)c(c12)[nH]nc2

$$$$
Schrodinger_fragment_308_a
                    3D
 Structure written by MMmdl.
 17 18  0  0  1  0            999 V2000
    2.2776   -2.2124    0.0239 C   0  0  0  0  0  0
    2.3963   -3.6253    0.0247 C   0  0  0  0  0  0
    3.6100   -4.3166    0.0241 N   0  0  0  0  0  0
    4.6871   -3.5802    0.0228 C   0  0  0  0  0  0
    4.6994   -2.1638    0.0220 N   0  0  0  0  0  0
    3.5591   -1.4204    0.0225 C   0  0  0  0  0  0
    1.0009   -1.8328    0.0247 N   0  0  0  0  0  0
    0.3128   -3.0081    0.0259 N   0  0  0  0  0  0
    1.1266   -4.1240    0.0260 C   0  0  0  0  0  0
    3.5324   -0.1817    0.0217 O   0  0  0  0  0  0
    6.0297   -1.5418    0.0205 C   0  0  0  0  0  0
    5.6830   -4.0280    0.0222 H   0  0  0  0  0  0
   -0.7046   -3.0519    0.0266 H   0  0  0  0  0  0
    0.7386   -5.1342    0.0269 H   0  0  0  0  0  0
    6.0006   -0.4514    0.0209 H   0  0  0  0  0  0
    6.5931   -1.8456   -0.8631 H   0  0  0  0  0  0
    6.5955   -1.8462    0.9024 H   0  0  0  0  0  0
  1  6  1  0  0  0
  1  2  1  0  0  0
  1  7  2  0  0  0
  2  3  1  0  0  0
  2  9  2  0  0  0
  3  4  2  0  0  0
  4  5  1  0  0  0
  4 12  1  0  0  0
  5  6  1  0  0  0
  5 11  1  0  0  0
  6 10  2  0  0  0
  7  8  1  0  0  0
  8  9  1  0  0  0
  8 13  1  0  0  0
  9 14  1  0  0  0
 11 15  1  0  0  0
 11 16  1  0  0  0
 11 17  1  0  0  0
M  END
> <s_m_entry_name>
Schrodinger_fragment_372

> <i_m_number_of_atoms>
17

> <r_m_molecular_weight>
150.14092

> <s_m_molecular_formula>
C6H6N4O1

> <r_epik_Ionization_Penalty>
  0.0000

> <r_epik_Ionization_Penalty_Charging>
  0.0000

> <r_epik_Ionization_Penalty_Neutral>
  0.0000

> <r_epik_State_Penalty>
  0.4107

> <i_epik_Tot_Q>
0

> <r_epik_Metal_State_Penalty>
  0.4107

> <b_epik_Metal_Only>
0

> <s_m_entry_id>
4800

> <s_canvas_Unique_SMILES_Stereo>
O=c1n(C)cnc(c12)c[nH]n2

$$$$
Schrodinger_fragment_309
                    3D
 Structure written by MMmdl.
 15 16  0  0  1  0            999 V2000
    4.5273    2.1345    0.0290 N   0  0  0  0  0  0
    4.5906    3.4968    0.0297 C   0  0  0  0  0  0
    3.4159    4.1805    0.0271 N   0  0  0  0  0  0
    2.1711    3.5232    0.0238 C   0  0  0  0  0  0
    2.1848    2.1709    0.0234 C   0  0  0  0  0  0
    3.4098    1.3752    0.0261 C   0  0  0  0  0  0
    0.8691    4.0246    0.0208 N   0  0  0  0  0  0
    0.1367    2.8985    0.0186 C   0  0  0  0  0  0
    0.8649    1.7671    0.0200 N   0  0  0  0  0  0
    3.3994    0.1406    0.0256 O   0  0  0  0  0  0
    5.6718    4.0874    0.0325 O   0  0  0  0  0  0
    5.4048    1.6406    0.0310 H   0  0  0  0  0  0
   -0.9448    2.8969    0.0160 H   0  0  0  0  0  0
    0.5185    0.8157    0.0189 H   0  0  0  0  0  0
    3.4363    5.1911    0.0275 H   0  0  0  0  0  0
  1  2  1  0  0  0
  1 12  1  0  0  0
  1  6  1  0  0  0
  2  3  1  0  0  0
  2 11  2  0  0  0
  3  4  1  0  0  0
  3 15  1  0  0  0
  4  7  1  0  0  0
  4  5  2  0  0  0
  5  6  1  0  0  0
  5  9  1  0  0  0
  6 10  2  0  0  0
  7  8  2  0  0  0
  8  9  1  0  0  0
  8 13  1  0  0  0
  9 14  1  0  0  0
M  END
> <s_m_entry_name>
Schrodinger_fragment_374

> <i_m_number_of_atoms>
15

> <r_m_molecular_weight>
152.11323

> <s_m_molecular_formula>
C5H4N4O2

> <r_epik_Ionization_Penalty>
  0.0037

> <r_epik_Ionization_Penalty_Charging>
  0.0036

> <r_epik_Ionization_Penalty_Neutral>
  0.0000

> <r_epik_State_Penalty>
  0.0494

> <i_epik_Tot_Q>
0

> <r_epik_Metal_State_Penalty>
  0.4240

> <b_epik_Metal_Only>
0

> <s_m_entry_id>
4801

> <s_canvas_Unique_SMILES_Stereo>
[nH]1cnc(c12)[nH]c(=O)[nH]c2=O

$$$$
Schrodinger_fragment_309_a
                    3D
 Structure written by MMmdl.
 15 16  0  0  1  0            999 V2000
    4.5271    2.1652    0.0291 N   0  0  0  0  0  0
    4.5583    3.5287    0.0296 C   0  0  0  0  0  0
    3.3679    4.1821    0.0269 N   0  0  0  0  0  0
    2.2174    3.4782    0.0239 C   0  0  0  0  0  0
    2.1388    2.1216    0.0232 C   0  0  0  0  0  0
    3.4305    1.3661    0.0261 C   0  0  0  0  0  0
    0.9241    3.9688    0.0209 N   0  0  0  0  0  0
    0.1323    2.8838    0.0186 C   0  0  0  0  0  0
    0.7982    1.7200    0.0198 N   0  0  0  0  0  0
    3.4945    0.1310    0.0258 O   0  0  0  0  0  0
    5.6224    4.1466    0.0324 O   0  0  0  0  0  0
    5.4160    1.6948    0.0310 H   0  0  0  0  0  0
   -0.9473    2.9485    0.0160 H   0  0  0  0  0  0
    0.6097    4.9326    0.0205 H   0  0  0  0  0  0
    3.3522    5.1945    0.0273 H   0  0  0  0  0  0
  1  2  1  0  0  0
  1 12  1  0  0  0
  1  6  1  0  0  0
  2  3  1  0  0  0
  2 11  2  0  0  0
  3  4  1  0  0  0
  3 15  1  0  0  0
  4  7  1  0  0  0
  4  5  2  0  0  0
  5  6  1  0  0  0
  5  9  1  0  0  0
  6 10  2  0  0  0
  7  8  1  0  0  0
  7 14  1  0  0  0
  8  9  2  0  0  0
  8 13  1  0  0  0
M  END
> <s_m_entry_name>
Schrodinger_fragment_374

> <i_m_number_of_atoms>
15

> <r_m_molecular_weight>
152.11323

> <s_m_molecular_formula>
C5H4N4O2

> <r_epik_Ionization_Penalty>
  7.3462

> <r_epik_Ionization_Penalty_Charging>
  7.3450

> <r_epik_Ionization_Penalty_Neutral>
  0.0012

> <r_epik_State_Penalty>
  1.7756

> <i_epik_Tot_Q>
0

> <r_epik_Metal_State_Penalty>
  2.1501

> <b_epik_Metal_Only>
0

> <s_m_entry_id>
4802

> <s_canvas_Unique_SMILES_Stereo>
n1c[nH]c(c12)[nH]c(=O)[nH]c2=O

$$$$
Schrodinger_fragment_309_b
                    3D
 Structure written by MMmdl.
 14 15  0  0  1  0            999 V2000
    4.5091    2.1768    0.0290 N   0  0  0  0  0  0
    4.4663    3.5827    0.0294 C   0  0  0  0  0  0
    3.3602    4.2781    0.0270 N   0  0  0  0  0  0
    2.2298    3.4908    0.0239 C   0  0  0  0  0  0
    2.1452    2.1256    0.0233 C   0  0  0  0  0  0
    3.4254    1.3671    0.0261 C   0  0  0  0  0  0
    0.9215    3.9454    0.0209 N   0  0  0  0  0  0
    0.1362    2.8578    0.0186 C   0  0  0  0  0  0
    0.8129    1.7051    0.0199 N   0  0  0  0  0  0
    3.4974    0.1351    0.0258 O   0  0  0  0  0  0
    5.6403    3.9614    0.0324 O   0  5  0  0  0  0
    5.4122    1.7276    0.0311 H   0  0  0  0  0  0
   -0.9438    2.9139    0.0160 H   0  0  0  0  0  0
    0.5936    4.9052    0.0205 H   0  0  0  0  0  0
  1  2  1  0  0  0
  1 12  1  0  0  0
  1  6  1  0  0  0
  2  3  2  0  0  0
  2 11  1  0  0  0
  3  4  1  0  0  0
  4  7  1  0  0  0
  4  5  2  0  0  0
  5  6  1  0  0  0
  5  9  1  0  0  0
  6 10  2  0  0  0
  7  8  1  0  0  0
  7 14  1  0  0  0
  8  9  2  0  0  0
  8 13  1  0  0  0
M  CHG  1  11  -1
M  END
> <s_m_entry_name>
Schrodinger_fragment_374

> <i_m_number_of_atoms>
15

> <r_m_molecular_weight>
152.11323

> <s_m_molecular_formula>
C5H4N4O2

> <r_epik_Ionization_Penalty>
  0.5809

> <r_epik_Ionization_Penalty_Charging>
  0.0000

> <r_epik_Ionization_Penalty_Neutral>
  0.5809

> <r_epik_State_Penalty>
  2.0763

> <i_epik_Tot_Q>
-1

> <r_epik_Metal_State_Penalty>
  1.8719

> <b_epik_Metal_Only>
0

> <s_m_entry_id>
4803

> <s_canvas_Unique_SMILES_Stereo>
n1c[nH]c(c12)nc([O-])[nH]c2=O

$$$$
Schrodinger_fragment_309_c
                    3D
 Structure written by MMmdl.
 14 15  0  0  1  0            999 V2000
    4.5471    2.1231    0.0291 N   0  5  0  0  0  0
    4.5722    3.4988    0.0296 C   0  0  0  0  0  0
    3.4132    4.1968    0.0271 N   0  0  0  0  0  0
    2.1707    3.5351    0.0238 C   0  0  0  0  0  0
    2.1955    2.1797    0.0234 C   0  0  0  0  0  0
    3.4107    1.3600    0.0261 C   0  0  0  0  0  0
    0.8658    4.0315    0.0208 N   0  0  0  0  0  0
    0.1424    2.9000    0.0187 C   0  0  0  0  0  0
    0.8776    1.7738    0.0201 N   0  0  0  0  0  0
    3.3401    0.1281    0.0255 O   0  0  0  0  0  0
    5.6218    4.1405    0.0324 O   0  0  0  0  0  0
   -0.9390    2.8906    0.0160 H   0  0  0  0  0  0
    0.5442    0.8187    0.0189 H   0  0  0  0  0  0
    3.4295    5.2081    0.0274 H   0  0  0  0  0  0
  1  2  1  0  0  0
  1  6  1  0  0  0
  2  3  1  0  0  0
  2 11  2  0  0  0
  3  4  1  0  0  0
  3 14  1  0  0  0
  4  7  1  0  0  0
  4  5  2  0  0  0
  5  6  1  0  0  0
  5  9  1  0  0  0
  6 10  2  0  0  0
  7  8  2  0  0  0
  8  9  1  0  0  0
  8 12  1  0  0  0
  9 13  1  0  0  0
M  CHG  1   1  -1
M  END
> <s_m_entry_name>
Schrodinger_fragment_374

> <i_m_number_of_atoms>
15

> <r_m_molecular_weight>
152.11323

> <s_m_molecular_formula>
C5H4N4O2

> <r_epik_Ionization_Penalty>
  3.0289

> <r_epik_Ionization_Penalty_Charging>
  0.0011

> <r_epik_Ionization_Penalty_Neutral>
  3.0278

> <r_epik_State_Penalty>
  3.0644

> <i_epik_Tot_Q>
-1

> <r_epik_Metal_State_Penalty>
  0.5094

> <b_epik_Metal_Only>
1

> <s_m_entry_id>
4804

> <s_canvas_Unique_SMILES_Stereo>
[nH]1cnc(c12)[nH]c(=O)[n-]c2=O

$$$$
Schrodinger_fragment_309_d
                    3D
 Structure written by MMmdl.
 14 15  0  0  1  0            999 V2000
    4.5479    2.1442    0.0291 N   0  0  0  0  0  0
    4.5980    3.4993    0.0297 C   0  0  0  0  0  0
    3.4241    4.1767    0.0271 N   0  0  0  0  0  0
    2.1663    3.5484    0.0238 C   0  0  0  0  0  0
    2.1538    2.1472    0.0233 C   0  0  0  0  0  0
    3.4445    1.3708    0.0261 C   0  0  0  0  0  0
    0.9036    4.0246    0.0209 N   0  0  0  0  0  0
    0.1199    2.9220    0.0186 C   0  0  0  0  0  0
    0.8581    1.7843    0.0200 N   0  5  0  0  0  0
    3.4749    0.1329    0.0258 O   0  0  0  0  0  0
    5.6748    4.0970    0.0325 O   0  0  0  0  0  0
    5.4290    1.6590    0.0311 H   0  0  0  0  0  0
   -0.9683    2.8814    0.0160 H   0  0  0  0  0  0
    3.4617    5.1865    0.0275 H   0  0  0  0  0  0
  1  2  1  0  0  0
  1 12  1  0  0  0
  1  6  1  0  0  0
  2  3  1  0  0  0
  2 11  2  0  0  0
  3  4  1  0  0  0
  3 14  1  0  0  0
  4  7  1  0  0  0
  4  5  2  0  0  0
  5  6  1  0  0  0
  5  9  1  0  0  0
  6 10  2  0  0  0
  7  8  2  0  0  0
  8  9  1  0  0  0
  8 13  1  0  0  0
M  CHG  1   9  -1
M  END
> <s_m_entry_name>
Schrodinger_fragment_374

> <i_m_number_of_atoms>
15

> <r_m_molecular_weight>
152.11323

> <s_m_molecular_formula>
C5H4N4O2

> <r_epik_Ionization_Penalty>
 16.6926

> <r_epik_Ionization_Penalty_Charging>
 10.1005

> <r_epik_Ionization_Penalty_Neutral>
  6.5921

> <r_epik_State_Penalty>
  6.4410

> <i_epik_Tot_Q>
-1

> <r_epik_Metal_State_Penalty>
  2.7315

> <b_epik_Metal_Only>
1

> <s_m_entry_id>
4805

> <s_canvas_Unique_SMILES_Stereo>
[n-]1cnc(c12)[nH]c(=O)[nH]c2=O

$$$$
Schrodinger_fragment_309_e
                    3D
 Structure written by MMmdl.
 14 15  0  0  1  0            999 V2000
    4.5814    2.1561    0.0292 N   0  5  0  0  0  0
    4.5521    3.5315    0.0296 C   0  0  0  0  0  0
    3.3679    4.1923    0.0269 N   0  0  0  0  0  0
    2.2149    3.4860    0.0239 C   0  0  0  0  0  0
    2.1393    2.1280    0.0232 C   0  0  0  0  0  0
    3.4443    1.3935    0.0262 C   0  0  0  0  0  0
    0.9193    3.9702    0.0209 N   0  0  0  0  0  0
    0.1330    2.8803    0.0186 C   0  0  0  0  0  0
    0.8021    1.7182    0.0199 N   0  0  0  0  0  0
    3.4488    0.1561    0.0257 O   0  0  0  0  0  0
    5.5744    4.2129    0.0323 O   0  0  0  0  0  0
   -0.9468    2.9406    0.0160 H   0  0  0  0  0  0
    0.6004    4.9325    0.0205 H   0  0  0  0  0  0
    3.3466    5.2054    0.0272 H   0  0  0  0  0  0
  1  2  1  0  0  0
  1  6  1  0  0  0
  2  3  1  0  0  0
  2 11  2  0  0  0
  3  4  1  0  0  0
  3 14  1  0  0  0
  4  7  1  0  0  0
  4  5  2  0  0  0
  5  6  1  0  0  0
  5  9  1  0  0  0
  6 10  2  0  0  0
  7  8  1  0  0  0
  7 13  1  0  0  0
  8  9  2  0  0  0
  8 12  1  0  0  0
M  CHG  1   1  -1
M  END
> <s_m_entry_name>
Schrodinger_fragment_374

> <i_m_number_of_atoms>
15

> <r_m_molecular_weight>
152.11323

> <s_m_molecular_formula>
C5H4N4O2

> <r_epik_Ionization_Penalty>
  6.9983

> <r_epik_Ionization_Penalty_Charging>
  0.0001

> <r_epik_Ionization_Penalty_Neutral>
  6.9981

> <r_epik_State_Penalty>
  5.4815

> <i_epik_Tot_Q>
-1

> <r_epik_Metal_State_Penalty>
  5.7520

> <b_epik_Metal_Only>
1

> <s_m_entry_id>
4806

> <s_canvas_Unique_SMILES_Stereo>
n1c[nH]c(c12)[nH]c(=O)[n-]c2=O

$$$$
Schrodinger_fragment_309_f
                    3D
 Structure written by MMmdl.
 13 14  0  0  1  0            999 V2000
    4.5507    2.1596    0.0291 N   0  0  0  0  0  0
    4.5013    3.5532    0.0295 C   0  0  0  0  0  0
    3.3849    4.2196    0.0270 N   0  0  0  0  0  0
    2.1878    3.5003    0.0238 C   0  0  0  0  0  0
    2.1487    2.0830    0.0232 C   0  0  0  0  0  0
    3.4699    1.3577    0.0262 C   0  0  0  0  0  0
    0.9321    3.9562    0.0209 N   0  5  0  0  0  0
    0.1252    2.8714    0.0186 C   0  0  0  0  0  0
    0.8417    1.7269    0.0200 N   0  0  0  0  0  0
    3.5411    0.1246    0.0259 O   0  0  0  0  0  0
    5.6727    3.9441    0.0325 O   0  5  0  0  0  0
    5.4551    1.7123    0.0311 H   0  0  0  0  0  0
   -0.9583    2.9794    0.0160 H   0  0  0  0  0  0
  1  2  1  0  0  0
  1 12  1  0  0  0
  1  6  1  0  0  0
  2  3  2  0  0  0
  2 11  1  0  0  0
  3  4  1  0  0  0
  4  7  1  0  0  0
  4  5  2  0  0  0
  5  6  1  0  0  0
  5  9  1  0  0  0
  6 10  2  0  0  0
  7  8  1  0  0  0
  8  9  2  0  0  0
  8 13  1  0  0  0
M  CHG  2   7  -1  11  -1
M  END
> <s_m_entry_name>
Schrodinger_fragment_374

> <i_m_number_of_atoms>
15

> <r_m_molecular_weight>
152.11323

> <s_m_molecular_formula>
C5H4N4O2

> <r_epik_Ionization_Penalty>
  7.7830

> <r_epik_Ionization_Penalty_Charging>
  3.9760

> <r_epik_Ionization_Penalty_Neutral>
  3.8071

> <r_epik_State_Penalty>
  6.0515

> <i_epik_Tot_Q>
-2

> <r_epik_Metal_State_Penalty>
  2.8049

> <b_epik_Metal_Only>
1

> <s_m_entry_id>
4807

> <s_canvas_Unique_SMILES_Stereo>
n1c[n-]c(c12)nc([O-])[nH]c2=O

$$$$
Schrodinger_fragment_310
                    3D
 Structure written by MMmdl.
 17 18  0  0  1  0            999 V2000
    4.5576   -2.6355    0.1385 N   0  0  0  0  0  0
    4.5237   -1.2301    0.0762 C   0  0  0  0  0  0
    3.4094   -0.5557   -0.0072 N   0  0  0  0  0  0
    2.2210   -1.2985   -0.0331 C   0  0  0  0  0  0
    2.2222   -2.6565    0.0256 C   0  0  0  0  0  0
    3.4634   -3.4289    0.1194 C   0  0  0  0  0  0
    0.9298   -0.7970   -0.1176 N   0  0  0  0  0  0
    0.1971   -1.9206   -0.1049 C   0  0  0  0  0  0
    0.8975   -3.0724   -0.0210 N   0  0  0  0  0  0
    3.5035   -4.6590    0.1744 O   0  0  0  0  0  0
    5.6968   -0.8469    0.1168 O   0  5  0  0  0  0
    0.3698   -4.4229    0.0115 C   0  0  0  0  0  0
    5.4587   -3.0887    0.2020 H   0  0  0  0  0  0
   -0.8828   -1.9050   -0.1582 H   0  0  0  0  0  0
   -0.7192   -4.4057   -0.0423 H   0  0  0  0  0  0
    0.6693   -4.9141    0.9375 H   0  0  0  0  0  0
    0.7557   -4.9906   -0.8355 H   0  0  0  0  0  0
  1  2  1  0  0  0
  1  6  1  0  0  0
  1 13  1  0  0  0
  2  3  2  0  0  0
  2 11  1  0  0  0
  3  4  1  0  0  0
  4  5  2  0  0  0
  4  7  1  0  0  0
  5  6  1  0  0  0
  5  9  1  0  0  0
  6 10  2  0  0  0
  7  8  2  0  0  0
  8  9  1  0  0  0
  8 14  1  0  0  0
  9 12  1  0  0  0
 12 15  1  0  0  0
 12 16  1  0  0  0
 12 17  1  0  0  0
M  CHG  1  11  -1
M  END
> <s_m_entry_name>
Schrodinger_fragment_378

> <i_m_number_of_atoms>
18

> <r_m_molecular_weight>
166.14032

> <s_m_molecular_formula>
C6H6N4O2

> <r_epik_Ionization_Penalty>
  0.0553

> <r_epik_Ionization_Penalty_Charging>
  0.0000

> <r_epik_Ionization_Penalty_Neutral>
  0.0553

> <r_epik_State_Penalty>
  0.0630

> <i_epik_Tot_Q>
-1

> <r_epik_Metal_State_Penalty>
  0.1466

> <b_epik_Metal_Only>
0

> <s_m_entry_id>
4808

> <s_canvas_Unique_SMILES_Stereo>
Cn1cnc(c12)nc([O-])[nH]c2=O

$$$$
Schrodinger_fragment_310_a
                    3D
 Structure written by MMmdl.
 18 19  0  0  1  0            999 V2000
    4.5671   -2.6389    0.1391 N   0  0  0  0  0  0
    4.6148   -1.2792    0.0828 C   0  0  0  0  0  0
    3.4343   -0.6152   -0.0034 N   0  0  0  0  0  0
    2.1989   -1.2896   -0.0345 C   0  0  0  0  0  0
    2.2142   -2.6431    0.0246 C   0  0  0  0  0  0
    3.4609   -3.4144    0.1186 C   0  0  0  0  0  0
    0.9038   -0.7910   -0.1191 N   0  0  0  0  0  0
    0.1801   -1.9195   -0.1057 C   0  0  0  0  0  0
    0.8897   -3.0664   -0.0217 N   0  0  0  0  0  0
    3.4864   -4.6476    0.1731 O   0  0  0  0  0  0
    5.6873   -0.6737    0.1089 O   0  0  0  0  0  0
    0.3662   -4.4194    0.0112 C   0  0  0  0  0  0
    5.4498   -3.1197    0.2029 H   0  0  0  0  0  0
    3.4421    0.3947   -0.0466 H   0  0  0  0  0  0
   -0.8999   -1.9120   -0.1587 H   0  0  0  0  0  0
   -0.7230   -4.4057   -0.0425 H   0  0  0  0  0  0
    0.6660   -4.9102    0.9374 H   0  0  0  0  0  0
    0.7524   -4.9867   -0.8360 H   0  0  0  0  0  0
  1  2  1  0  0  0
  1  6  1  0  0  0
  1 13  1  0  0  0
  2  3  1  0  0  0
  2 11  2  0  0  0
  3  4  1  0  0  0
  3 14  1  0  0  0
  4  5  2  0  0  0
  4  7  1  0  0  0
  5  6  1  0  0  0
  5  9  1  0  0  0
  6 10  2  0  0  0
  7  8  2  0  0  0
  8  9  1  0  0  0
  8 15  1  0  0  0
  9 12  1  0  0  0
 12 16  1  0  0  0
 12 17  1  0  0  0
 12 18  1  0  0  0
M  END
> <s_m_entry_name>
Schrodinger_fragment_378

> <i_m_number_of_atoms>
18

> <r_m_molecular_weight>
166.14032

> <s_m_molecular_formula>
C6H6N4O2

> <r_epik_Ionization_Penalty>
  1.5202

> <r_epik_Ionization_Penalty_Charging>
  1.5202

> <r_epik_Ionization_Penalty_Neutral>
  0.0000

> <r_epik_State_Penalty>
  1.4437

> <i_epik_Tot_Q>
0

> <r_epik_Metal_State_Penalty>
  1.5823

> <b_epik_Metal_Only>
0

> <s_m_entry_id>
4809

> <s_canvas_Unique_SMILES_Stereo>
Cn1cnc(c12)[nH]c(=O)[nH]c2=O

$$$$
Schrodinger_fragment_310_b
                    3D
 Structure written by MMmdl.
 17 18  0  0  1  0            999 V2000
    4.5919   -2.6448    0.1406 N   0  5  0  0  0  0
    4.5956   -1.2730    0.0816 C   0  0  0  0  0  0
    3.4286   -0.5996   -0.0044 N   0  0  0  0  0  0
    2.1985   -1.2825   -0.0348 C   0  0  0  0  0  0
    2.2263   -2.6399    0.0251 C   0  0  0  0  0  0
    3.4712   -3.4309    0.1199 C   0  0  0  0  0  0
    0.9020   -0.7867   -0.1194 N   0  0  0  0  0  0
    0.1862   -1.9188   -0.1055 C   0  0  0  0  0  0
    0.8996   -3.0625   -0.0214 N   0  0  0  0  0  0
    3.4532   -4.6636    0.1722 O   0  0  0  0  0  0
    5.6332   -0.6125    0.1036 O   0  0  0  0  0  0
    0.3704   -4.4132    0.0111 C   0  0  0  0  0  0
    3.4286    0.4109   -0.0479 H   0  0  0  0  0  0
   -0.8938   -1.9163   -0.1582 H   0  0  0  0  0  0
   -0.7187   -4.3958   -0.0427 H   0  0  0  0  0  0
    0.6687   -4.9047    0.9373 H   0  0  0  0  0  0
    0.7551   -4.9812   -0.8361 H   0  0  0  0  0  0
  1  2  1  0  0  0
  1  6  1  0  0  0
  2  3  1  0  0  0
  2 11  2  0  0  0
  3  4  1  0  0  0
  3 13  1  0  0  0
  4  5  2  0  0  0
  4  7  1  0  0  0
  5  6  1  0  0  0
  5  9  1  0  0  0
  6 10  2  0  0  0
  7  8  2  0  0  0
  8  9  1  0  0  0
  8 14  1  0  0  0
  9 12  1  0  0  0
 12 15  1  0  0  0
 12 16  1  0  0  0
 12 17  1  0  0  0
M  CHG  1   1  -1
M  END
> <s_m_entry_name>
Schrodinger_fragment_378

> <i_m_number_of_atoms>
18

> <r_m_molecular_weight>
166.14032

> <s_m_molecular_formula>
C6H6N4O2

> <r_epik_Ionization_Penalty>
  1.1992

> <r_epik_Ionization_Penalty_Charging>
  0.0039

> <r_epik_Ionization_Penalty_Neutral>
  1.1953

> <r_epik_State_Penalty>
  2.5544

> <i_epik_Tot_Q>
-1

> <r_epik_Metal_State_Penalty>
  1.5015

> <b_epik_Metal_Only>
0

> <s_m_entry_id>
4810

> <s_canvas_Unique_SMILES_Stereo>
Cn1cnc(c12)[nH]c(=O)[n-]c2=O

$$$$
Schrodinger_fragment_310_c
                    3D
 Structure written by MMmdl.
 16 17  0  0  1  0            999 V2000
    4.5923   -2.6194    0.1395 N   0  0  0  0  0  0
    4.4677   -1.3085    0.0769 C   0  0  0  0  0  0
    3.3749   -0.5771   -0.0079 N   0  0  0  0  0  0
    2.2487   -1.3065   -0.0314 C   0  0  0  0  0  0
    2.2370   -2.7239    0.0292 C   0  0  0  0  0  0
    3.4760   -3.3611    0.1171 C   0  0  0  0  0  0
    0.9659   -0.7914   -0.1161 N   0  0  0  0  0  0
    0.2331   -1.9112   -0.1035 C   0  0  0  0  0  0
    0.8964   -3.0849   -0.0206 N   0  0  0  0  0  0
    3.6664   -4.7023    0.1842 O   0  5  0  0  0  0
    5.6092   -0.6403    0.1037 O   0  5  0  0  0  0
    0.3240   -4.4172    0.0090 C   0  0  0  0  0  0
   -0.8474   -1.8767   -0.1577 H   0  0  0  0  0  0
   -0.7645   -4.3672   -0.0462 H   0  0  0  0  0  0
    0.6064   -4.9208    0.9342 H   0  0  0  0  0  0
    0.6927   -4.9973   -0.8376 H   0  0  0  0  0  0
  1  2  1  0  0  0
  1  6  2  0  0  0
  2  3  2  0  0  0
  2 11  1  0  0  0
  3  4  1  0  0  0
  4  5  2  0  0  0
  4  7  1  0  0  0
  5  6  1  0  0  0
  5  9  1  0  0  0
  6 10  1  0  0  0
  7  8  2  0  0  0
  8  9  1  0  0  0
  8 13  1  0  0  0
  9 12  1  0  0  0
 12 14  1  0  0  0
 12 15  1  0  0  0
 12 16  1  0  0  0
M  CHG  2  10  -1  11  -1
M  END
> <s_m_entry_name>
Schrodinger_fragment_378

> <i_m_number_of_atoms>
18

> <r_m_molecular_weight>
166.14032

> <s_m_molecular_formula>
C6H6N4O2

> <r_epik_Ionization_Penalty>
 11.2210

> <r_epik_Ionization_Penalty_Charging>
  0.0182

> <r_epik_Ionization_Penalty_Neutral>
 11.2028

> <r_epik_State_Penalty>
  5.5233

> <i_epik_Tot_Q>
-2

> <r_epik_Metal_State_Penalty>
  1.5697

> <b_epik_Metal_Only>
1

> <s_m_entry_id>
4811

> <s_canvas_Unique_SMILES_Stereo>
Cn1cnc(c12)nc([O-])nc2[O-]

$$$$
Schrodinger_fragment_311
                    3D
 Structure written by MMmdl.
 18 19  0  0  1  0            999 V2000
    4.5546   -2.6670    0.1184 N   0  0  0  0  0  0
    4.6305   -1.3067    0.1105 C   0  0  0  0  0  0
    3.4561   -0.5933    0.0476 N   0  0  0  0  0  0
    2.2112   -1.2728   -0.0068 C   0  0  0  0  0  0
    2.2217   -2.6252    0.0052 C   0  0  0  0  0  0
    3.4388   -3.4210    0.0708 C   0  0  0  0  0  0
    0.9029   -0.7799   -0.0743 N   0  0  0  0  0  0
    0.1741   -1.9065   -0.1000 C   0  0  0  0  0  0
    0.9044   -3.0343   -0.0550 N   0  0  0  0  0  0
    3.4247   -4.6552    0.0806 O   0  0  0  0  0  0
    5.7360   -0.7583    0.1593 O   0  0  0  0  0  0
    3.4333    0.8714    0.0340 C   0  0  0  0  0  0
   -0.9061   -1.9109   -0.1522 H   0  0  0  0  0  0
    4.4218    1.3302    0.0779 H   0  0  0  0  0  0
    2.8623    1.2425    0.8857 H   0  0  0  0  0  0
    2.9474    1.2276   -0.8750 H   0  0  0  0  0  0
    0.5612   -3.9869   -0.0635 H   0  0  0  0  0  0
    5.4285   -3.1639    0.1649 H   0  0  0  0  0  0
  1  2  1  0  0  0
  1  6  1  0  0  0
  1 18  1  0  0  0
  2  3  1  0  0  0
  2 11  2  0  0  0
  3  4  1  0  0  0
  3 12  1  0  0  0
  4  7  1  0  0  0
  4  5  2  0  0  0
  5  6  1  0  0  0
  5  9  1  0  0  0
  6 10  2  0  0  0
  7  8  2  0  0  0
  8  9  1  0  0  0
  8 13  1  0  0  0
  9 17  1  0  0  0
 12 14  1  0  0  0
 12 15  1  0  0  0
 12 16  1  0  0  0
M  END
> <s_m_entry_name>
Schrodinger_fragment_380

> <i_m_number_of_atoms>
18

> <r_m_molecular_weight>
166.14032

> <s_m_molecular_formula>
C6H6N4O2

> <r_epik_Ionization_Penalty>
  0.0024

> <r_epik_Ionization_Penalty_Charging>
  0.0024

> <r_epik_Ionization_Penalty_Neutral>
  0.0000

> <r_epik_State_Penalty>
  0.1141

> <i_epik_Tot_Q>
0

> <r_epik_Metal_State_Penalty>
  9.7538

> <b_epik_Metal_Only>
0

> <s_m_entry_id>
4812

> <s_canvas_Unique_SMILES_Stereo>
O=c1[nH]c(=O)n(C)c(c12)nc[nH]2

$$$$
Schrodinger_fragment_311_a
                    3D
 Structure written by MMmdl.
 17 18  0  0  1  0            999 V2000
    4.6112   -2.6734    0.1212 N   0  5  0  0  0  0
    4.6144   -1.2977    0.1096 C   0  0  0  0  0  0
    3.4352   -0.5908    0.0466 N   0  0  0  0  0  0
    2.2768   -1.3000   -0.0034 C   0  0  0  0  0  0
    2.1790   -2.6572    0.0034 C   0  0  0  0  0  0
    3.4641   -3.4119    0.0720 C   0  0  0  0  0  0
    0.9825   -0.8087   -0.0702 N   0  0  0  0  0  0
    0.1840   -1.8876   -0.0996 C   0  0  0  0  0  0
    0.8388   -3.0554   -0.0580 N   0  0  0  0  0  0
    3.4454   -4.6487    0.0816 O   0  0  0  0  0  0
    5.6798   -0.6791    0.1559 O   0  0  0  0  0  0
    3.3683    0.8760    0.0309 C   0  0  0  0  0  0
   -0.8938   -1.8150   -0.1524 H   0  0  0  0  0  0
    4.3433    1.3625    0.0739 H   0  0  0  0  0  0
    2.7930    1.2363    0.8843 H   0  0  0  0  0  0
    2.8783    1.2213   -0.8802 H   0  0  0  0  0  0
    0.6803    0.1576   -0.0930 H   0  0  0  0  0  0
  1  2  1  0  0  0
  1  6  1  0  0  0
  2  3  1  0  0  0
  2 11  2  0  0  0
  3  4  1  0  0  0
  3 12  1  0  0  0
  4  7  1  0  0  0
  4  5  2  0  0  0
  5  6  1  0  0  0
  5  9  1  0  0  0
  6 10  2  0  0  0
  7  8  1  0  0  0
  7 17  1  0  0  0
  8  9  2  0  0  0
  8 13  1  0  0  0
 12 14  1  0  0  0
 12 15  1  0  0  0
 12 16  1  0  0  0
M  CHG  1   1  -1
M  END
> <s_m_entry_name>
Schrodinger_fragment_380

> <i_m_number_of_atoms>
18

> <r_m_molecular_weight>
166.14032

> <s_m_molecular_formula>
C6H6N4O2

> <r_epik_Ionization_Penalty>
  6.9692

> <r_epik_Ionization_Penalty_Charging>
  6.7547

> <r_epik_Ionization_Penalty_Neutral>
  0.2145

> <r_epik_State_Penalty>
  1.2072

> <i_epik_Tot_Q>
-1

> <r_epik_Metal_State_Penalty>
 10.6722

> <b_epik_Metal_Only>
0

> <s_m_entry_id>
4813

> <s_canvas_Unique_SMILES_Stereo>
O=c1[n-]c(=O)n(C)c(c12)[nH]cn2

$$$$
Schrodinger_fragment_311_b
                    3D
 Structure written by MMmdl.
 18 19  0  0  1  0            999 V2000
    4.5574   -2.6511    0.1184 N   0  0  0  0  0  0
    4.6144   -1.2899    0.1095 C   0  0  0  0  0  0
    3.4300   -0.5958    0.0464 N   0  0  0  0  0  0
    2.2754   -1.3048   -0.0035 C   0  0  0  0  0  0
    2.1787   -2.6610    0.0034 C   0  0  0  0  0  0
    3.4533   -3.4323    0.0716 C   0  0  0  0  0  0
    0.9822   -0.8106   -0.0702 N   0  0  0  0  0  0
    0.1813   -1.8871   -0.0998 C   0  0  0  0  0  0
    0.8363   -3.0548   -0.0582 N   0  0  0  0  0  0
    3.4992   -4.6678    0.0843 O   0  0  0  0  0  0
    5.7091   -0.7235    0.1577 O   0  0  0  0  0  0
    3.3743    0.8695    0.0312 C   0  0  0  0  0  0
   -0.8964   -1.8132   -0.1525 H   0  0  0  0  0  0
    4.3556    1.3442    0.0746 H   0  0  0  0  0  0
    2.8026    1.2358    0.8848 H   0  0  0  0  0  0
    2.8879    1.2207   -0.8796 H   0  0  0  0  0  0
    0.6816    0.1563   -0.0930 H   0  0  0  0  0  0
    5.4376   -3.1338    0.1650 H   0  0  0  0  0  0
  1  2  1  0  0  0
  1 18  1  0  0  0
  1  6  1  0  0  0
  2  3  1  0  0  0
  2 11  2  0  0  0
  3  4  1  0  0  0
  3 12  1  0  0  0
  4  7  1  0  0  0
  4  5  2  0  0  0
  5  6  1  0  0  0
  5  9  1  0  0  0
  6 10  2  0  0  0
  7  8  1  0  0  0
  7 17  1  0  0  0
  8  9  2  0  0  0
  8 13  1  0  0  0
 12 14  1  0  0  0
 12 15  1  0  0  0
 12 16  1  0  0  0
M  END
> <s_m_entry_name>
Schrodinger_fragment_380

> <i_m_number_of_atoms>
18

> <r_m_molecular_weight>
166.14032

> <s_m_molecular_formula>
C6H6N4O2

> <r_epik_Ionization_Penalty>
  0.8080

> <r_epik_Ionization_Penalty_Charging>
  0.8080

> <r_epik_Ionization_Penalty_Neutral>
  0.0000

> <r_epik_State_Penalty>
  1.8402

> <i_epik_Tot_Q>
0

> <r_epik_Metal_State_Penalty>
 11.4800

> <b_epik_Metal_Only>
0

> <s_m_entry_id>
4814

> <s_canvas_Unique_SMILES_Stereo>
O=c1[nH]c(=O)n(C)c(c12)[nH]cn2

$$$$
Schrodinger_fragment_311_c
                    3D
 Structure written by MMmdl.
 17 18  0  0  1  0            999 V2000
    4.5753   -2.6888    0.1196 N   0  5  0  0  0  0
    4.6177   -1.3133    0.1099 C   0  0  0  0  0  0
    3.4579   -0.5812    0.0476 N   0  0  0  0  0  0
    2.2147   -1.2636   -0.0067 C   0  0  0  0  0  0
    2.2337   -2.6191    0.0057 C   0  0  0  0  0  0
    3.4382   -3.4427    0.0710 C   0  0  0  0  0  0
    0.9043   -0.7733   -0.0743 N   0  0  0  0  0  0
    0.1825   -1.9038   -0.0996 C   0  0  0  0  0  0
    0.9177   -3.0276   -0.0545 N   0  0  0  0  0  0
    3.3598   -4.6737    0.0777 O   0  0  0  0  0  0
    5.7014   -0.7236    0.1573 O   0  0  0  0  0  0
    3.4273    0.8853    0.0336 C   0  0  0  0  0  0
   -0.8976   -1.9142   -0.1517 H   0  0  0  0  0  0
    4.4118    1.3518    0.0773 H   0  0  0  0  0  0
    2.8538    1.2516    0.8854 H   0  0  0  0  0  0
    2.9389    1.2366   -0.8756 H   0  0  0  0  0  0
    0.5860   -3.9834   -0.0624 H   0  0  0  0  0  0
  1  2  1  0  0  0
  1  6  1  0  0  0
  2  3  1  0  0  0
  2 11  2  0  0  0
  3  4  1  0  0  0
  3 12  1  0  0  0
  4  7  1  0  0  0
  4  5  2  0  0  0
  5  6  1  0  0  0
  5  9  1  0  0  0
  6 10  2  0  0  0
  7  8  2  0  0  0
  8  9  1  0  0  0
  8 13  1  0  0  0
  9 17  1  0  0  0
 12 14  1  0  0  0
 12 15  1  0  0  0
 12 16  1  0  0  0
M  CHG  1   1  -1
M  END
> <s_m_entry_name>
Schrodinger_fragment_380

> <i_m_number_of_atoms>
18

> <r_m_molecular_weight>
166.14032

> <s_m_molecular_formula>
C6H6N4O2

> <r_epik_Ionization_Penalty>
  3.2656

> <r_epik_Ionization_Penalty_Charging>
  0.0027

> <r_epik_Ionization_Penalty_Neutral>
  3.2630

> <r_epik_State_Penalty>
  3.3746

> <i_epik_Tot_Q>
-1

> <r_epik_Metal_State_Penalty>
  9.8815

> <b_epik_Metal_Only>
1

> <s_m_entry_id>
4815

> <s_canvas_Unique_SMILES_Stereo>
O=c1[n-]c(=O)n(C)c(c12)nc[nH]2

$$$$
Schrodinger_fragment_311_d
                    3D
 Structure written by MMmdl.
 16 17  0  0  1  0            999 V2000
    4.5972   -2.6791    0.1205 N   0  0  0  0  0  0
    4.5361   -1.3401    0.1062 C   0  0  0  0  0  0
    3.4232   -0.5787    0.0459 N   0  0  0  0  0  0
    2.2318   -1.2631   -0.0059 C   0  0  0  0  0  0
    2.1745   -2.6808    0.0034 C   0  0  0  0  0  0
    3.4285   -3.3476    0.0697 C   0  0  0  0  0  0
    0.9936   -0.7831   -0.0699 N   0  0  0  0  0  0
    0.2135   -1.8832   -0.0983 C   0  0  0  0  0  0
    0.8973   -3.0450   -0.0553 N   0  0  0  0  0  0
    3.5591   -4.7009    0.0875 O   0  5  0  0  0  0
    5.7468   -0.7385    0.1596 O   0  5  0  0  0  0
    3.4091    0.8896    0.0327 C   0  0  0  0  0  0
   -0.8689   -1.8367   -0.1510 H   0  0  0  0  0  0
    4.4049    1.3303    0.0771 H   0  0  0  0  0  0
    2.8399    1.2580    0.8878 H   0  0  0  0  0  0
    2.9253    1.2429   -0.8794 H   0  0  0  0  0  0
  1  2  2  0  0  0
  1  6  1  0  0  0
  2  3  1  0  0  0
  2 11  1  0  0  0
  3  4  1  0  0  0
  3 12  1  0  0  0
  4  7  2  0  0  0
  4  5  1  0  0  0
  5  6  2  0  0  0
  5  9  1  0  0  0
  6 10  1  0  0  0
  7  8  1  0  0  0
  8  9  2  0  0  0
  8 13  1  0  0  0
 12 14  1  0  0  0
 12 15  1  0  0  0
 12 16  1  0  0  0
M  CHG  2  10  -1  11  -1
M  END
> <s_m_entry_name>
Schrodinger_fragment_380

> <i_m_number_of_atoms>
18

> <r_m_molecular_weight>
166.14032

> <s_m_molecular_formula>
C6H6N4O2

> <r_epik_Ionization_Penalty>
  9.2066

> <r_epik_Ionization_Penalty_Charging>
  0.0002

> <r_epik_Ionization_Penalty_Neutral>
  9.2063

> <r_epik_State_Penalty>
  0.0000

> <i_epik_Tot_Q>
-2

> <r_epik_Metal_State_Penalty>
  0.0000

> <b_epik_Metal_Only>
1

> <s_m_entry_id>
4816

> <s_canvas_Unique_SMILES_Stereo>
[O-]c1nc([O-])n(C)c(-c12)ncn2

$$$$
Schrodinger_fragment_311_e
                    3D
 Structure written by MMmdl.
 17 18  0  0  1  0            999 V2000
    4.5291   -2.6593    0.1171 N   0  0  0  0  0  0
    4.6125   -1.3115    0.1096 C   0  0  0  0  0  0
    3.4425   -0.6047    0.0470 N   0  0  0  0  0  0
    2.1930   -1.2439   -0.0080 C   0  0  0  0  0  0
    2.1765   -2.6551    0.0033 C   0  0  0  0  0  0
    3.3439   -3.3743    0.0658 C   0  0  0  0  0  0
    1.0181   -0.7304   -0.0692 N   0  0  0  0  0  0
    0.2335   -1.9409   -0.0968 C   0  0  0  0  0  0
    0.8629   -3.0536   -0.0569 N   0  0  0  0  0  0
    3.6695   -4.5788    0.0918 O   0  5  0  0  0  0
    5.7252   -0.7842    0.1590 O   0  0  0  0  0  0
    3.4258    0.8655    0.0337 C   0  0  0  0  0  0
   -0.8586   -1.9075   -0.1499 H   0  0  0  0  0  0
    4.4192    1.3131    0.0780 H   0  0  0  0  0  0
    2.8640    1.2468    0.8874 H   0  0  0  0  0  0
    2.9493    1.2318   -0.8765 H   0  0  0  0  0  0
    5.3854   -3.1962    0.1631 H   0  0  0  0  0  0
  1  2  1  0  0  0
  1 17  1  0  0  0
  1  6  1  0  0  0
  2  3  1  0  0  0
  2 11  2  0  0  0
  3  4  1  0  0  0
  3 12  1  0  0  0
  4  7  2  0  0  0
  4  5  1  0  0  0
  5  6  2  0  0  0
  5  9  1  0  0  0
  6 10  1  0  0  0
  7  8  1  0  0  0
  8  9  2  0  0  0
  8 13  1  0  0  0
 12 14  1  0  0  0
 12 15  1  0  0  0
 12 16  1  0  0  0
M  CHG  1  10  -1
M  END
> <s_m_entry_name>
Schrodinger_fragment_380

> <i_m_number_of_atoms>
18

> <r_m_molecular_weight>
166.14032

> <s_m_molecular_formula>
C6H6N4O2

> <r_epik_Ionization_Penalty>
 18.6780

> <r_epik_Ionization_Penalty_Charging>
  3.0888

> <r_epik_Ionization_Penalty_Neutral>
 15.5892

> <r_epik_State_Penalty>
  8.4050

> <i_epik_Tot_Q>
-1

> <r_epik_Metal_State_Penalty>
 13.9530

> <b_epik_Metal_Only>
1

> <s_m_entry_id>
4817

> <s_canvas_Unique_SMILES_Stereo>
[O-]c1[nH]c(=O)n(C)c(-c12)ncn2

$$$$
Schrodinger_fragment_312
                    3D
 Structure written by MMmdl.
 17 18  0  0  1  0            999 V2000
    4.5810   -3.6087    0.0248 N   0  0  0  0  0  0
    4.5097   -2.1631    0.0282 C   0  0  0  0  0  0
    3.3927   -1.4855    0.0283 N   0  0  0  0  0  0
    2.2703   -2.2717    0.0249 C   0  0  0  0  0  0
    2.1870   -3.6316    0.0215 C   0  0  0  0  0  0
    3.4593   -4.3980    0.0214 C   0  0  0  0  0  0
    0.9630   -1.8142    0.0242 N   0  0  0  0  0  0
    0.1755   -2.8994    0.0205 C   0  0  0  0  0  0
    0.8526   -4.0511    0.0186 N   0  0  0  0  0  0
    3.4679   -5.6358    0.0184 O   0  0  0  0  0  0
    5.6459   -1.6694    0.0310 O   0  5  0  0  0  0
    5.9059   -4.2812    0.0250 C   0  0  0  0  0  0
   -0.9045   -2.8425    0.0191 H   0  0  0  0  0  0
    0.6371   -0.8538    0.0261 H   0  0  0  0  0  0
    5.8640   -5.3708    0.0224 H   0  0  0  0  0  0
    6.4785   -4.0011    0.9106 H   0  0  0  0  0  0
    6.4810   -3.9968   -0.8576 H   0  0  0  0  0  0
  1  2  1  0  0  0
  1 12  1  0  0  0
  1  6  1  0  0  0
  2  3  2  0  0  0
  2 11  1  0  0  0
  3  4  1  0  0  0
  4  7  1  0  0  0
  4  5  2  0  0  0
  5  6  1  0  0  0
  5  9  1  0  0  0
  6 10  2  0  0  0
  7  8  1  0  0  0
  7 14  1  0  0  0
  8  9  2  0  0  0
  8 13  1  0  0  0
 12 15  1  0  0  0
 12 16  1  0  0  0
 12 17  1  0  0  0
M  CHG  1  11  -1
M  END
> <s_m_entry_name>
Schrodinger_fragment_384

> <i_m_number_of_atoms>
18

> <r_m_molecular_weight>
166.14032

> <s_m_molecular_formula>
C6H6N4O2

> <r_epik_Ionization_Penalty>
  0.0011

> <r_epik_Ionization_Penalty_Charging>
  0.0006

> <r_epik_Ionization_Penalty_Neutral>
  0.0005

> <r_epik_State_Penalty>
  0.0830

> <i_epik_Tot_Q>
-1

> <r_epik_Metal_State_Penalty>
  0.3021

> <b_epik_Metal_Only>
0

> <s_m_entry_id>
4818

> <s_canvas_Unique_SMILES_Stereo>
O=c1n(C)c([O-])nc(c12)[nH]cn2

$$$$
Schrodinger_fragment_312_a
                    3D
 Structure written by MMmdl.
 17 18  0  0  1  0            999 V2000
    4.6041   -3.6205    0.0248 N   0  0  0  0  0  0
    4.5382   -2.1733    0.0282 C   0  0  0  0  0  0
    3.4085   -1.5165    0.0283 N   0  0  0  0  0  0
    2.2287   -2.2601    0.0249 C   0  0  0  0  0  0
    2.2508   -3.6121    0.0216 C   0  0  0  0  0  0
    3.4760   -4.3956    0.0214 C   0  0  0  0  0  0
    0.9244   -1.7735    0.0242 N   0  0  0  0  0  0
    0.1987   -2.9040    0.0205 C   0  0  0  0  0  0
    0.9355   -4.0285    0.0188 N   0  0  0  0  0  0
    3.4426   -5.6306    0.0184 O   0  0  0  0  0  0
    5.6752   -1.6790    0.0310 O   0  5  0  0  0  0
    5.9213   -4.3021    0.0250 C   0  0  0  0  0  0
   -0.8827   -2.9133    0.0190 H   0  0  0  0  0  0
    0.5991   -4.9831    0.0161 H   0  0  0  0  0  0
    5.8648   -5.3912    0.0223 H   0  0  0  0  0  0
    6.4962   -4.0268    0.9106 H   0  0  0  0  0  0
    6.4987   -4.0225   -0.8576 H   0  0  0  0  0  0
  1  2  1  0  0  0
  1  6  1  0  0  0
  1 12  1  0  0  0
  2  3  2  0  0  0
  2 11  1  0  0  0
  3  4  1  0  0  0
  4  5  2  0  0  0
  4  7  1  0  0  0
  5  6  1  0  0  0
  5  9  1  0  0  0
  6 10  2  0  0  0
  7  8  2  0  0  0
  8  9  1  0  0  0
  8 13  1  0  0  0
  9 14  1  0  0  0
 12 15  1  0  0  0
 12 16  1  0  0  0
 12 17  1  0  0  0
M  CHG  1  11  -1
M  END
> <s_m_entry_name>
Schrodinger_fragment_384

> <i_m_number_of_atoms>
18

> <r_m_molecular_weight>
166.14032

> <s_m_molecular_formula>
C6H6N4O2

> <r_epik_Ionization_Penalty>
  0.0015

> <r_epik_Ionization_Penalty_Charging>
  0.0007

> <r_epik_Ionization_Penalty_Neutral>
  0.0009

> <r_epik_State_Penalty>
  1.2054

> <i_epik_Tot_Q>
-1

> <r_epik_Metal_State_Penalty>
  1.4244

> <b_epik_Metal_Only>
0

> <s_m_entry_id>
4819

> <s_canvas_Unique_SMILES_Stereo>
O=c1n(C)c([O-])nc(c12)nc[nH]2

$$$$
Schrodinger_fragment_312_b
                    3D
 Structure written by MMmdl.
 16 17  0  0  1  0            999 V2000
    4.6028   -3.6407    0.0248 N   0  0  0  0  0  0
    4.5308   -2.2906    0.0279 C   0  0  0  0  0  0
    3.4072   -1.5785    0.0281 N   0  0  0  0  0  0
    2.2199   -2.2446    0.0249 C   0  0  0  0  0  0
    2.1791   -3.6607    0.0214 C   0  0  0  0  0  0
    3.4318   -4.3528    0.0215 C   0  0  0  0  0  0
    0.9849   -1.7582    0.0244 N   0  0  0  0  0  0
    0.2092   -2.8615    0.0206 C   0  0  0  0  0  0
    0.8984   -4.0221    0.0188 N   0  0  0  0  0  0
    3.4979   -5.7146    0.0183 O   0  5  0  0  0  0
    5.6788   -1.5711    0.0313 O   0  5  0  0  0  0
    5.9283   -4.2967    0.0250 C   0  0  0  0  0  0
   -0.8746   -2.8194    0.0192 H   0  0  0  0  0  0
    5.8904   -5.3863    0.0224 H   0  0  0  0  0  0
    6.4924   -3.9987    0.9119 H   0  0  0  0  0  0
    6.4949   -3.9945   -0.8588 H   0  0  0  0  0  0
  1  2  1  0  0  0
  1 12  1  0  0  0
  1  6  1  0  0  0
  2  3  2  0  0  0
  2 11  1  0  0  0
  3  4  1  0  0  0
  4  7  2  0  0  0
  4  5  1  0  0  0
  5  6  2  0  0  0
  5  9  1  0  0  0
  6 10  1  0  0  0
  7  8  1  0  0  0
  8  9  2  0  0  0
  8 13  1  0  0  0
 12 14  1  0  0  0
 12 15  1  0  0  0
 12 16  1  0  0  0
M  CHG  2  10  -1  11  -1
M  END
> <s_m_entry_name>
Schrodinger_fragment_384

> <i_m_number_of_atoms>
18

> <r_m_molecular_weight>
166.14032

> <s_m_molecular_formula>
C6H6N4O2

> <r_epik_Ionization_Penalty>
  8.0769

> <r_epik_Ionization_Penalty_Charging>
  0.0000

> <r_epik_Ionization_Penalty_Neutral>
  8.0769

> <r_epik_State_Penalty>
  4.1413

> <i_epik_Tot_Q>
-2

> <r_epik_Metal_State_Penalty>
  0.6956

> <b_epik_Metal_Only>
1

> <s_m_entry_id>
4820

> <s_canvas_Unique_SMILES_Stereo>
[O-]c1n(C)c([O-])nc(-c12)ncn2

$$$$
Schrodinger_fragment_313
                    3D
 Structure written by MMmdl.
 21 22  0  0  1  0            999 V2000
    4.5474   -3.5748    0.2325 N   0  0  0  0  0  0
    4.6025   -2.2170    0.1809 C   0  0  0  0  0  0
    3.4229   -1.5284    0.0516 N   0  0  0  0  0  0
    2.1874   -2.2273   -0.0248 C   0  0  0  0  0  0
    2.2057   -3.5818    0.0330 C   0  0  0  0  0  0
    3.4462   -4.3486    0.1706 C   0  0  0  0  0  0
    0.8838   -1.7476   -0.1560 N   0  0  0  0  0  0
    0.1705   -2.8804   -0.1699 C   0  0  0  0  0  0
    0.8876   -4.0185   -0.0614 N   0  0  0  0  0  0
    3.4723   -5.5815    0.2241 O   0  0  0  0  0  0
    5.6933   -1.6419    0.2501 O   0  0  0  0  0  0
    0.3748   -5.3763   -0.0488 C   0  0  0  0  0  0
    3.4297   -0.0647   -0.0086 C   0  0  0  0  0  0
    5.4268   -4.0550    0.3275 H   0  0  0  0  0  0
   -0.9070   -2.8825   -0.2617 H   0  0  0  0  0  0
   -0.7118   -5.3720   -0.1417 H   0  0  0  0  0  0
    0.6449   -5.8657    0.8872 H   0  0  0  0  0  0
    0.7959   -5.9392   -0.8821 H   0  0  0  0  0  0
    2.4293    0.3555   -0.1114 H   0  0  0  0  0  0
    4.0183    0.2805   -0.8598 H   0  0  0  0  0  0
    3.8682    0.3535    0.8986 H   0  0  0  0  0  0
  1  2  1  0  0  0
  1  6  1  0  0  0
  1 14  1  0  0  0
  2  3  1  0  0  0
  2 11  2  0  0  0
  3  4  1  0  0  0
  3 13  1  0  0  0
  4  5  2  0  0  0
  4  7  1  0  0  0
  5  6  1  0  0  0
  5  9  1  0  0  0
  6 10  2  0  0  0
  7  8  2  0  0  0
  8  9  1  0  0  0
  8 15  1  0  0  0
  9 12  1  0  0  0
 12 16  1  0  0  0
 12 17  1  0  0  0
 12 18  1  0  0  0
 13 19  1  0  0  0
 13 20  1  0  0  0
 13 21  1  0  0  0
M  END
> <s_m_entry_name>
Schrodinger_fragment_388

> <i_m_number_of_atoms>
21

> <r_m_molecular_weight>
180.16741

> <s_m_molecular_formula>
C7H8N4O2

> <r_epik_Ionization_Penalty>
  0.0014

> <r_epik_Ionization_Penalty_Charging>
  0.0014

> <r_epik_Ionization_Penalty_Neutral>
  0.0000

> <r_epik_State_Penalty>
  0.0000

> <i_epik_Tot_Q>
0

> <r_epik_Metal_State_Penalty>
  0.3176

> <b_epik_Metal_Only>
0

> <s_m_entry_id>
4821

> <s_canvas_Unique_SMILES_Stereo>
Cn1cnc(c12)n(C)c(=O)[nH]c2=O

$$$$
Schrodinger_fragment_313_a
                    3D
 Structure written by MMmdl.
 20 21  0  0  1  0            999 V2000
    4.5743   -3.5891    0.2354 N   0  5  0  0  0  0
    4.5894   -2.2176    0.1798 C   0  0  0  0  0  0
    3.4218   -1.5160    0.0510 N   0  0  0  0  0  0
    2.1912   -2.2222   -0.0247 C   0  0  0  0  0  0
    2.2199   -3.5808    0.0341 C   0  0  0  0  0  0
    3.4566   -4.3704    0.1724 C   0  0  0  0  0  0
    0.8865   -1.7437   -0.1559 N   0  0  0  0  0  0
    0.1797   -2.8788   -0.1691 C   0  0  0  0  0  0
    0.8988   -4.0147   -0.0606 N   0  0  0  0  0  0
    3.4363   -5.6027    0.2219 O   0  0  0  0  0  0
    5.6545   -1.5962    0.2449 O   0  0  0  0  0  0
    0.3777   -5.3691   -0.0489 C   0  0  0  0  0  0
    3.4188   -0.0507   -0.0101 C   0  0  0  0  0  0
   -0.8977   -2.8844   -0.2609 H   0  0  0  0  0  0
   -0.7088   -5.3589   -0.1420 H   0  0  0  0  0  0
    0.6453   -5.8601    0.8870 H   0  0  0  0  0  0
    0.7963   -5.9335   -0.8823 H   0  0  0  0  0  0
    2.4162    0.3637   -0.1129 H   0  0  0  0  0  0
    4.0058    0.2951   -0.8618 H   0  0  0  0  0  0
    3.8557    0.3681    0.8972 H   0  0  0  0  0  0
  1  2  1  0  0  0
  1  6  1  0  0  0
  2  3  1  0  0  0
  2 11  2  0  0  0
  3  4  1  0  0  0
  3 13  1  0  0  0
  4  5  2  0  0  0
  4  7  1  0  0  0
  5  6  1  0  0  0
  5  9  1  0  0  0
  6 10  2  0  0  0
  7  8  2  0  0  0
  8  9  1  0  0  0
  8 14  1  0  0  0
  9 12  1  0  0  0
 12 15  1  0  0  0
 12 16  1  0  0  0
 12 17  1  0  0  0
 13 18  1  0  0  0
 13 19  1  0  0  0
 13 20  1  0  0  0
M  CHG  1   1  -1
M  END
> <s_m_entry_name>
Schrodinger_fragment_388

> <i_m_number_of_atoms>
21

> <r_m_molecular_weight>
180.16741

> <s_m_molecular_formula>
C7H8N4O2

> <r_epik_Ionization_Penalty>
  3.5748

> <r_epik_Ionization_Penalty_Charging>
  0.0036

> <r_epik_Ionization_Penalty_Neutral>
  3.5711

> <r_epik_State_Penalty>
  3.5697

> <i_epik_Tot_Q>
-1

> <r_epik_Metal_State_Penalty>
  0.5212

> <b_epik_Metal_Only>
1

> <s_m_entry_id>
4822

> <s_canvas_Unique_SMILES_Stereo>
Cn1cnc(c12)n(C)c(=O)[n-]c2=O

$$$$
Schrodinger_fragment_314
                    3D
 Structure written by MMmdl.
 21 22  0  0  1  0            999 V2000
    4.6054   -3.6171    0.0287 N   0  0  0  0  0  0
    4.6265   -2.2350    0.0273 C   0  0  0  0  0  0
    3.4355   -1.5487    0.0237 N   0  0  0  0  0  0
    2.2024   -2.2438    0.0216 C   0  0  0  0  0  0
    2.2398   -3.5925    0.0231 C   0  0  0  0  0  0
    3.4674   -4.3729    0.0268 C   0  0  0  0  0  0
    0.8825   -1.7772    0.0180 N   0  0  0  0  0  0
    0.1737   -2.9158    0.0175 C   0  0  0  0  0  0
    0.9282   -4.0276    0.0204 N   0  0  0  0  0  0
    3.4217   -5.6097    0.0280 O   0  0  0  0  0  0
    5.6998   -1.6150    0.0291 O   0  0  0  0  0  0
    3.4285   -0.0823    0.0222 C   0  0  0  0  0  0
    5.9099   -4.3081    0.0325 C   0  0  0  0  0  0
   -0.9075   -2.9411    0.0150 H   0  0  0  0  0  0
    0.6041   -4.9871    0.0207 H   0  0  0  0  0  0
    2.4207    0.3328    0.0194 H   0  0  0  0  0  0
    3.9419    0.3024   -0.8603 H   0  0  0  0  0  0
    3.9377    0.3043    0.9062 H   0  0  0  0  0  0
    5.8468   -5.3971    0.0335 H   0  0  0  0  0  0
    6.4867   -4.0275    0.9154 H   0  0  0  0  0  0
    6.4909   -4.0294   -0.8483 H   0  0  0  0  0  0
  1  2  1  0  0  0
  1  6  1  0  0  0
  1 13  1  0  0  0
  2  3  1  0  0  0
  2 11  2  0  0  0
  3  4  1  0  0  0
  3 12  1  0  0  0
  4  5  2  0  0  0
  4  7  1  0  0  0
  5  6  1  0  0  0
  5  9  1  0  0  0
  6 10  2  0  0  0
  7  8  2  0  0  0
  8  9  1  0  0  0
  8 14  1  0  0  0
  9 15  1  0  0  0
 12 16  1  0  0  0
 12 17  1  0  0  0
 12 18  1  0  0  0
 13 19  1  0  0  0
 13 20  1  0  0  0
 13 21  1  0  0  0
M  END
> <s_m_entry_name>
Schrodinger_fragment_390

> <i_m_number_of_atoms>
21

> <r_m_molecular_weight>
180.16741

> <s_m_molecular_formula>
C7H8N4O2

> <r_epik_Ionization_Penalty>
  0.0000

> <r_epik_Ionization_Penalty_Charging>
  0.0000

> <r_epik_Ionization_Penalty_Neutral>
  0.0000

> <r_epik_State_Penalty>
  0.0313

> <i_epik_Tot_Q>
0

> <r_epik_Metal_State_Penalty>
  0.0316

> <b_epik_Metal_Only>
0

> <s_m_entry_id>
4823

> <s_canvas_Unique_SMILES_Stereo>
O=c1n(C)c(=O)n(C)c(c12)nc[nH]2

$$$$
Schrodinger_fragment_314_a
                    3D
 Structure written by MMmdl.
 21 22  0  0  1  0            999 V2000
    4.5984   -3.6264    0.0287 N   0  0  0  0  0  0
    4.6211   -2.2432    0.0273 C   0  0  0  0  0  0
    3.4293   -1.5585    0.0237 N   0  0  0  0  0  0
    2.2799   -2.2684    0.0218 C   0  0  0  0  0  0
    2.1878   -3.6205    0.0230 C   0  0  0  0  0  0
    3.4605   -4.3945    0.0268 C   0  0  0  0  0  0
    0.9840   -1.7757    0.0182 N   0  0  0  0  0  0
    0.1835   -2.8521    0.0174 C   0  0  0  0  0  0
    0.8433   -4.0173    0.0202 N   0  0  0  0  0  0
    3.4529   -5.6342    0.0281 O   0  0  0  0  0  0
    5.6947   -1.6273    0.0291 O   0  0  0  0  0  0
    3.3576   -0.0917    0.0220 C   0  0  0  0  0  0
    5.9092   -4.3097    0.0325 C   0  0  0  0  0  0
   -0.8957   -2.7802    0.0148 H   0  0  0  0  0  0
    0.6811   -0.8091    0.0165 H   0  0  0  0  0  0
    4.3317    0.3994    0.0238 H   0  0  0  0  0  0
    2.8211    0.2621    0.9034 H   0  0  0  0  0  0
    2.8253    0.2602   -0.8626 H   0  0  0  0  0  0
    5.8579   -5.3992    0.0335 H   0  0  0  0  0  0
    6.4843   -4.0250    0.9152 H   0  0  0  0  0  0
    6.4885   -4.0269   -0.8481 H   0  0  0  0  0  0
  1  2  1  0  0  0
  1 13  1  0  0  0
  1  6  1  0  0  0
  2  3  1  0  0  0
  2 11  2  0  0  0
  3  4  1  0  0  0
  3 12  1  0  0  0
  4  7  1  0  0  0
  4  5  2  0  0  0
  5  6  1  0  0  0
  5  9  1  0  0  0
  6 10  2  0  0  0
  7  8  1  0  0  0
  7 15  1  0  0  0
  8  9  2  0  0  0
  8 14  1  0  0  0
 12 16  1  0  0  0
 12 17  1  0  0  0
 12 18  1  0  0  0
 13 19  1  0  0  0
 13 20  1  0  0  0
 13 21  1  0  0  0
M  END
> <s_m_entry_name>
Schrodinger_fragment_390

> <i_m_number_of_atoms>
21

> <r_m_molecular_weight>
180.16741

> <s_m_molecular_formula>
C7H8N4O2

> <r_epik_Ionization_Penalty>
  0.0000

> <r_epik_Ionization_Penalty_Charging>
  0.0000

> <r_epik_Ionization_Penalty_Neutral>
  0.0000

> <r_epik_State_Penalty>
  1.7575

> <i_epik_Tot_Q>
0

> <r_epik_Metal_State_Penalty>
  1.7578

> <b_epik_Metal_Only>
0

> <s_m_entry_id>
4824

> <s_canvas_Unique_SMILES_Stereo>
O=c1n(C)c(=O)n(C)c(c12)[nH]cn2

$$$$
Schrodinger_fragment_314_b
                    3D
 Structure written by MMmdl.
 20 21  0  0  1  0            999 V2000
    4.5822   -3.6402    0.0287 N   0  0  0  0  0  0
    4.6191   -2.2658    0.0273 C   0  0  0  0  0  0
    3.4410   -1.5709    0.0238 N   0  0  0  0  0  0
    2.1988   -2.2086    0.0215 C   0  0  0  0  0  0
    2.1834   -3.6130    0.0230 C   0  0  0  0  0  0
    3.3435   -4.3454    0.0265 C   0  0  0  0  0  0
    1.0233   -1.6921    0.0182 N   0  0  0  0  0  0
    0.2346   -2.8991    0.0176 C   0  0  0  0  0  0
    0.8657   -4.0101    0.0203 N   0  0  0  0  0  0
    3.5442   -5.5806    0.0283 O   0  5  0  0  0  0
    5.7061   -1.6736    0.0292 O   0  0  0  0  0  0
    3.4071   -0.0982    0.0221 C   0  0  0  0  0  0
    5.9063   -4.3239    0.0325 C   0  0  0  0  0  0
   -0.8588   -2.8644    0.0150 H   0  0  0  0  0  0
    4.3921    0.3691    0.0240 H   0  0  0  0  0  0
    2.8801    0.2706    0.9032 H   0  0  0  0  0  0
    2.8843    0.2688   -0.8622 H   0  0  0  0  0  0
    5.9078   -5.4135    0.0336 H   0  0  0  0  0  0
    6.4790   -4.0262    0.9132 H   0  0  0  0  0  0
    6.4832   -4.0281   -0.8461 H   0  0  0  0  0  0
  1  2  1  0  0  0
  1 13  1  0  0  0
  1  6  1  0  0  0
  2  3  1  0  0  0
  2 11  2  0  0  0
  3  4  1  0  0  0
  3 12  1  0  0  0
  4  7  2  0  0  0
  4  5  1  0  0  0
  5  6  2  0  0  0
  5  9  1  0  0  0
  6 10  1  0  0  0
  7  8  1  0  0  0
  8  9  2  0  0  0
  8 14  1  0  0  0
 12 15  1  0  0  0
 12 16  1  0  0  0
 12 17  1  0  0  0
 13 18  1  0  0  0
 13 19  1  0  0  0
 13 20  1  0  0  0
M  CHG  1  10  -1
M  END
> <s_m_entry_name>
Schrodinger_fragment_390

> <i_m_number_of_atoms>
21

> <r_m_molecular_weight>
180.16741

> <s_m_molecular_formula>
C7H8N4O2

> <r_epik_Ionization_Penalty>
 16.2007

> <r_epik_Ionization_Penalty_Charging>
  0.0000

> <r_epik_Ionization_Penalty_Neutral>
 16.2007

> <r_epik_State_Penalty>
  8.5701

> <i_epik_Tot_Q>
-1

> <r_epik_Metal_State_Penalty>
  4.4781

> <b_epik_Metal_Only>
1

> <s_m_entry_id>
4825

> <s_canvas_Unique_SMILES_Stereo>
[O-]c1n(C)c(=O)n(C)c(-c12)ncn2

$$$$
Schrodinger_fragment_315
                    3D
 Structure written by MMmdl.
 20 21  0  0  1  0            999 V2000
    4.6240   -3.6140    0.0258 N   0  0  0  0  0  0
    4.5440   -2.1699    0.0247 C   0  0  0  0  0  0
    3.4091   -1.5258    0.0236 N   0  0  0  0  0  0
    2.2365   -2.2803    0.0234 C   0  0  0  0  0  0
    2.2574   -3.6348    0.0243 C   0  0  0  0  0  0
    3.5038   -4.4013    0.0256 C   0  0  0  0  0  0
    0.9390   -1.7895    0.0222 N   0  0  0  0  0  0
    0.2183   -2.9198    0.0226 C   0  0  0  0  0  0
    0.9344   -4.0643    0.0238 N   0  0  0  0  0  0
    3.5031   -5.6370    0.0265 O   0  0  0  0  0  0
    5.6755   -1.6630    0.0251 O   0  5  0  0  0  0
    5.9497   -4.2805    0.0271 C   0  0  0  0  0  0
    0.4186   -5.4202    0.0245 C   0  0  0  0  0  0
   -0.8630   -2.9148    0.0219 H   0  0  0  0  0  0
    5.9089   -5.3703    0.0278 H   0  0  0  0  0  0
    6.5220   -3.9954    0.9113 H   0  0  0  0  0  0
    6.5230   -3.9966   -0.8568 H   0  0  0  0  0  0
   -0.6719   -5.4109    0.0238 H   0  0  0  0  0  0
    0.7655   -5.9470    0.9135 H   0  0  0  0  0  0
    0.7666   -5.9483   -0.8634 H   0  0  0  0  0  0
  1  2  1  0  0  0
  1  6  1  0  0  0
  1 12  1  0  0  0
  2  3  2  0  0  0
  2 11  1  0  0  0
  3  4  1  0  0  0
  4  5  2  0  0  0
  4  7  1  0  0  0
  5  6  1  0  0  0
  5  9  1  0  0  0
  6 10  2  0  0  0
  7  8  2  0  0  0
  8  9  1  0  0  0
  8 14  1  0  0  0
  9 13  1  0  0  0
 12 15  1  0  0  0
 12 16  1  0  0  0
 12 17  1  0  0  0
 13 18  1  0  0  0
 13 19  1  0  0  0
 13 20  1  0  0  0
M  CHG  1  11  -1
M  END
> <s_m_entry_name>
Schrodinger_fragment_394

> <i_m_number_of_atoms>
21

> <r_m_molecular_weight>
180.16741

> <s_m_molecular_formula>
C7H8N4O2

> <r_epik_Ionization_Penalty>
  0.0935

> <r_epik_Ionization_Penalty_Charging>
  0.0000

> <r_epik_Ionization_Penalty_Neutral>
  0.0935

> <r_epik_State_Penalty>
  0.0931

> <i_epik_Tot_Q>
-1

> <r_epik_Metal_State_Penalty>
  0.0805

> <b_epik_Metal_Only>
0

> <s_m_entry_id>
4826

> <s_canvas_Unique_SMILES_Stereo>
Cn1cnc(c12)nc([O-])n(C)c2=O

$$$$
Schrodinger_fragment_315_a
                    3D
 Structure written by MMmdl.
 21 22  0  0  1  0            999 V2000
    4.6318   -3.6113    0.0258 N   0  0  0  0  0  0
    4.6304   -2.2309    0.0248 C   0  0  0  0  0  0
    3.4371   -1.5878    0.0236 N   0  0  0  0  0  0
    2.2138   -2.2715    0.0234 C   0  0  0  0  0  0
    2.2473   -3.6224    0.0243 C   0  0  0  0  0  0
    3.5020   -4.3859    0.0256 C   0  0  0  0  0  0
    0.9129   -1.7830    0.0222 N   0  0  0  0  0  0
    0.2004   -2.9179    0.0226 C   0  0  0  0  0  0
    0.9246   -4.0584    0.0238 N   0  0  0  0  0  0
    3.4937   -5.6238    0.0265 O   0  0  0  0  0  0
    5.6727   -1.5671    0.0250 O   0  0  0  0  0  0
    5.9498   -4.2736    0.0271 C   0  0  0  0  0  0
    0.4125   -5.4166    0.0245 C   0  0  0  0  0  0
    3.4314   -0.5776    0.0229 H   0  0  0  0  0  0
   -0.8810   -2.9201    0.0219 H   0  0  0  0  0  0
    5.9100   -5.3635    0.0278 H   0  0  0  0  0  0
    6.5218   -3.9804    0.9090 H   0  0  0  0  0  0
    6.5229   -3.9816   -0.8546 H   0  0  0  0  0  0
   -0.6780   -5.4105    0.0238 H   0  0  0  0  0  0
    0.7598   -5.9431    0.9137 H   0  0  0  0  0  0
    0.7609   -5.9444   -0.8636 H   0  0  0  0  0  0
  1  2  1  0  0  0
  1  6  1  0  0  0
  1 12  1  0  0  0
  2  3  1  0  0  0
  2 11  2  0  0  0
  3  4  1  0  0  0
  3 14  1  0  0  0
  4  5  2  0  0  0
  4  7  1  0  0  0
  5  6  1  0  0  0
  5  9  1  0  0  0
  6 10  2  0  0  0
  7  8  2  0  0  0
  8  9  1  0  0  0
  8 15  1  0  0  0
  9 13  1  0  0  0
 12 16  1  0  0  0
 12 17  1  0  0  0
 12 18  1  0  0  0
 13 19  1  0  0  0
 13 20  1  0  0  0
 13 21  1  0  0  0
M  END
> <s_m_entry_name>
Schrodinger_fragment_394

> <i_m_number_of_atoms>
21

> <r_m_molecular_weight>
180.16741

> <s_m_molecular_formula>
C7H8N4O2

> <r_epik_Ionization_Penalty>
  1.1423

> <r_epik_Ionization_Penalty_Charging>
  1.1423

> <r_epik_Ionization_Penalty_Neutral>
  0.0000

> <r_epik_State_Penalty>
  1.1423

> <i_epik_Tot_Q>
0

> <r_epik_Metal_State_Penalty>
  1.2227

> <b_epik_Metal_Only>
0

> <s_m_entry_id>
4827

> <s_canvas_Unique_SMILES_Stereo>
Cn1cnc(c12)[nH]c(=O)n(C)c2=O

$$$$
Schrodinger_fragment_316
                    3D
 Structure written by MMmdl.
 24 25  0  0  1  0            999 V2000
    4.6285   -3.6092    0.0271 N   0  0  0  0  0  0
    4.6368   -2.2290    0.0284 C   0  0  0  0  0  0
    3.4405   -1.5566    0.0280 N   0  0  0  0  0  0
    2.2140   -2.2634    0.0264 C   0  0  0  0  0  0
    2.2489   -3.6149    0.0252 C   0  0  0  0  0  0
    3.4986   -4.3775    0.0255 C   0  0  0  0  0  0
    0.9015   -1.7913    0.0258 N   0  0  0  0  0  0
    0.1965   -2.9284    0.0242 C   0  0  0  0  0  0
    0.9289   -4.0614    0.0238 N   0  0  0  0  0  0
    3.4868   -5.6151    0.0244 O   0  0  0  0  0  0
    5.7037   -1.5980    0.0299 O   0  0  0  0  0  0
    5.9422   -4.2841    0.0275 C   0  0  0  0  0  0
    0.4247   -5.4228    0.0222 C   0  0  0  0  0  0
    3.4207   -0.0900    0.0292 C   0  0  0  0  0  0
   -0.8849   -2.9377    0.0234 H   0  0  0  0  0  0
    5.8959   -5.3738    0.0263 H   0  0  0  0  0  0
    6.5169   -3.9978    0.9100 H   0  0  0  0  0  0
    6.5184   -3.9960   -0.8534 H   0  0  0  0  0  0
   -0.6659   -5.4232    0.0214 H   0  0  0  0  0  0
    0.7745   -5.9489    0.9107 H   0  0  0  0  0  0
    0.7759   -5.9473   -0.8667 H   0  0  0  0  0  0
    2.4103    0.3189    0.0286 H   0  0  0  0  0  0
    3.9299    0.3008   -0.8530 H   0  0  0  0  0  0
    3.9281    0.2992    0.9132 H   0  0  0  0  0  0
  1  2  1  0  0  0
  1  6  1  0  0  0
  1 12  1  0  0  0
  2  3  1  0  0  0
  2 11  2  0  0  0
  3  4  1  0  0  0
  3 14  1  0  0  0
  4  5  2  0  0  0
  4  7  1  0  0  0
  5  6  1  0  0  0
  5  9  1  0  0  0
  6 10  2  0  0  0
  7  8  2  0  0  0
  8  9  1  0  0  0
  8 15  1  0  0  0
  9 13  1  0  0  0
 12 16  1  0  0  0
 12 17  1  0  0  0
 12 18  1  0  0  0
 13 19  1  0  0  0
 13 20  1  0  0  0
 13 21  1  0  0  0
 14 22  1  0  0  0
 14 23  1  0  0  0
 14 24  1  0  0  0
M  END
> <s_m_entry_name>
Schrodinger_fragment_396

> <i_m_number_of_atoms>
24

> <r_m_molecular_weight>
194.1945

> <s_m_molecular_formula>
C8H10N4O2

> <r_epik_Ionization_Penalty>
  0.0000

> <r_epik_Ionization_Penalty_Charging>
  0.0000

> <r_epik_Ionization_Penalty_Neutral>
  0.0000

> <r_epik_State_Penalty>
  0.0000

> <i_epik_Tot_Q>
0

> <r_epik_Metal_State_Penalty>
  0.0000

> <b_epik_Metal_Only>
0

> <s_m_entry_id>
4828

> <s_canvas_Unique_SMILES_Stereo>
Cn1cnc(c12)n(C)c(=O)n(C)c2=O

$$$$
Schrodinger_fragment_317
                    3D
 Structure written by MMmdl.
 11 12  0  0  1  0            999 V2000
    2.1500    2.1141    0.0229 C   0  0  0  0  0  0
    2.2183    0.7324    0.0247 C   0  0  0  0  0  0
    3.3822    0.0608    0.0274 N   0  0  0  0  0  0
    4.4786    0.8074    0.0281 C   0  0  0  0  0  0
    4.5373    2.1479    0.0266 N   0  0  0  0  0  0
    3.3685    2.8085    0.0240 C   0  0  0  0  0  0
    0.8592    2.5308    0.0204 N   0  0  0  0  0  0
    0.1386    1.4141    0.0207 N   0  5  0  0  0  0
    0.9152    0.3250    0.0233 N   0  0  0  0  0  0
    3.4837    4.1656    0.0225 O   0  5  0  0  0  0
    5.4220    0.2844    0.0302 H   0  0  0  0  0  0
  1  6  1  0  0  0
  1  2  1  0  0  0
  1  7  2  0  0  0
  2  3  1  0  0  0
  2  9  2  0  0  0
  3  4  2  0  0  0
  4  5  1  0  0  0
  4 11  1  0  0  0
  5  6  2  0  0  0
  6 10  1  0  0  0
  7  8  1  0  0  0
  8  9  1  0  0  0
M  CHG  2   8  -1  10  -1
M  END
> <s_m_entry_name>
Schrodinger_fragment_398

> <i_m_number_of_atoms>
13

> <r_m_molecular_weight>
137.10141

> <s_m_molecular_formula>
C4H3N5O1

> <r_epik_Ionization_Penalty>
  0.3764

> <r_epik_Ionization_Penalty_Charging>
  0.2198

> <r_epik_Ionization_Penalty_Neutral>
  0.1565

> <r_epik_State_Penalty>
  0.3396

> <i_epik_Tot_Q>
-2

> <r_epik_Metal_State_Penalty>
  0.2601

> <b_epik_Metal_Only>
0

> <s_m_entry_id>
4829

> <s_canvas_Unique_SMILES_Stereo>
n1[n-]nc(c12)ncnc2[O-]

$$$$
Schrodinger_fragment_317_a
                    3D
 Structure written by MMmdl.
 12 13  0  0  1  0            999 V2000
    2.1351    2.1099    0.0229 C   0  0  0  0  0  0
    2.1815    0.7295    0.0247 C   0  0  0  0  0  0
    3.3545    0.0695    0.0273 N   0  0  0  0  0  0
    4.4613    0.8083    0.0281 C   0  0  0  0  0  0
    4.5159    2.1484    0.0265 N   0  0  0  0  0  0
    3.3486    2.8072    0.0239 C   0  0  0  0  0  0
    0.8960    2.5903    0.0204 N   0  0  0  0  0  0
    0.1887    1.4151    0.0208 N   0  0  0  0  0  0
    0.9329    0.2590    0.0234 N   0  0  0  0  0  0
    3.4565    4.1640    0.0224 O   0  5  0  0  0  0
    5.4031    0.2824    0.0302 H   0  0  0  0  0  0
   -0.8251    1.3978    0.0193 H   0  0  0  0  0  0
  1  6  1  0  0  0
  1  2  1  0  0  0
  1  7  2  0  0  0
  2  3  1  0  0  0
  2  9  2  0  0  0
  3  4  2  0  0  0
  4  5  1  0  0  0
  4 11  1  0  0  0
  5  6  2  0  0  0
  6 10  1  0  0  0
  7  8  1  0  0  0
  8 12  1  0  0  0
  8  9  1  0  0  0
M  CHG  1  10  -1
M  END
> <s_m_entry_name>
Schrodinger_fragment_398

> <i_m_number_of_atoms>
13

> <r_m_molecular_weight>
137.10141

> <s_m_molecular_formula>
C4H3N5O1

> <r_epik_Ionization_Penalty>
  0.7010

> <r_epik_Ionization_Penalty_Charging>
  0.0000

> <r_epik_Ionization_Penalty_Neutral>
  0.7010

> <r_epik_State_Penalty>
  0.8138

> <i_epik_Tot_Q>
-1

> <r_epik_Metal_State_Penalty>
  0.9498

> <b_epik_Metal_Only>
0

> <s_m_entry_id>
4830

> <s_canvas_Unique_SMILES_Stereo>
n1[nH]nc(c12)ncnc2[O-]

$$$$
Schrodinger_fragment_317_b
                    3D
 Structure written by MMmdl.
 12 13  0  0  1  0            999 V2000
    2.1983    2.1917    0.0229 C   0  0  0  0  0  0
    2.2071    0.7927    0.0247 C   0  0  0  0  0  0
    3.3274    0.0721    0.0273 N   0  0  0  0  0  0
    4.4353    0.8162    0.0280 C   0  0  0  0  0  0
    4.5368    2.1551    0.0265 N   0  0  0  0  0  0
    3.4071    2.8640    0.0239 C   0  0  0  0  0  0
    0.8504    2.4767    0.0205 N   0  0  0  0  0  0
    0.0979    1.3437    0.0207 N   0  0  0  0  0  0
    0.9029    0.3169    0.0232 N   0  0  0  0  0  0
    3.5408    4.2143    0.0225 O   0  5  0  0  0  0
    5.3686    0.2752    0.0301 H   0  0  0  0  0  0
    0.4136    3.3921    0.0187 H   0  0  0  0  0  0
  1  6  1  0  0  0
  1  2  2  0  0  0
  1  7  1  0  0  0
  2  3  1  0  0  0
  2  9  1  0  0  0
  3  4  2  0  0  0
  4  5  1  0  0  0
  4 11  1  0  0  0
  5  6  2  0  0  0
  6 10  1  0  0  0
  7  8  1  0  0  0
  7 12  1  0  0  0
  8  9  2  0  0  0
M  CHG  1  10  -1
M  END
> <s_m_entry_name>
Schrodinger_fragment_398

> <i_m_number_of_atoms>
13

> <r_m_molecular_weight>
137.10141

> <s_m_molecular_formula>
C4H3N5O1

> <r_epik_Ionization_Penalty>
  0.7642

> <r_epik_Ionization_Penalty_Charging>
  0.0000

> <r_epik_Ionization_Penalty_Neutral>
  0.7642

> <r_epik_State_Penalty>
  1.4801

> <i_epik_Tot_Q>
-1

> <r_epik_Metal_State_Penalty>
  1.6036

> <b_epik_Metal_Only>
0

> <s_m_entry_id>
4831

> <s_canvas_Unique_SMILES_Stereo>
[nH]1nnc(c12)ncnc2[O-]

$$$$
Schrodinger_fragment_317_c
                    3D
 Structure written by MMmdl.
 12 13  0  0  1  0            999 V2000
    2.1453    2.1098    0.0229 C   0  0  0  0  0  0
    2.2875    0.7081    0.0249 C   0  0  0  0  0  0
    3.4530   -0.0071    0.0276 N   0  0  0  0  0  0
    4.5150    0.8008    0.0282 C   0  0  0  0  0  0
    4.5292    2.1454    0.0265 N   0  0  0  0  0  0
    3.3645    2.8239    0.0239 C   0  0  0  0  0  0
    0.8017    2.4632    0.0204 N   0  0  0  0  0  0
    0.1046    1.3633    0.0207 N   0  0  0  0  0  0
    0.9698    0.3075    0.0234 N   0  0  0  0  0  0
    3.4757    4.1799    0.0224 O   0  5  0  0  0  0
    5.4804    0.3125    0.0303 H   0  0  0  0  0  0
    0.6372   -0.6476    0.0240 H   0  0  0  0  0  0
  1  6  1  0  0  0
  1  2  2  0  0  0
  1  7  1  0  0  0
  2  3  1  0  0  0
  2  9  1  0  0  0
  3  4  2  0  0  0
  4  5  1  0  0  0
  4 11  1  0  0  0
  5  6  2  0  0  0
  6 10  1  0  0  0
  7  8  2  0  0  0
  8  9  1  0  0  0
  9 12  1  0  0  0
M  CHG  1  10  -1
M  END
> <s_m_entry_name>
Schrodinger_fragment_398

> <i_m_number_of_atoms>
13

> <r_m_molecular_weight>
137.10141

> <s_m_molecular_formula>
C4H3N5O1

> <r_epik_Ionization_Penalty>
  1.1746

> <r_epik_Ionization_Penalty_Charging>
  0.0000

> <r_epik_Ionization_Penalty_Neutral>
  1.1746

> <r_epik_State_Penalty>
  1.7407

> <i_epik_Tot_Q>
-1

> <r_epik_Metal_State_Penalty>
  1.8395

> <b_epik_Metal_Only>
0

> <s_m_entry_id>
4832

> <s_canvas_Unique_SMILES_Stereo>
n1n[nH]c(c12)ncnc2[O-]

$$$$
Schrodinger_fragment_317_d
                    3D
 Structure written by MMmdl.
 12 13  0  0  1  0            999 V2000
    2.1277    2.1691    0.0228 C   0  0  0  0  0  0
    2.1723    0.7464    0.0247 C   0  0  0  0  0  0
    3.3647    0.0856    0.0273 N   0  0  0  0  0  0
    4.5030    0.7982    0.0282 C   0  0  0  0  0  0
    4.5412    2.1539    0.0266 N   0  0  0  0  0  0
    3.3846    2.8519    0.0239 C   0  0  0  0  0  0
    0.8538    2.5592    0.0204 N   0  0  0  0  0  0
    0.1207    1.3658    0.0208 N   0  0  0  0  0  0
    0.9441    0.2360    0.0234 N   0  0  0  0  0  0
    3.5296    4.2039    0.0225 O   0  5  0  0  0  0
    5.4395    0.2517    0.0303 H   0  0  0  0  0  0
    5.4376    2.6341    0.0273 H   0  0  0  0  0  0
  1  6  2  0  0  0
  1  2  1  0  0  0
  1  7  1  0  0  0
  2  3  1  0  0  0
  2  9  2  0  0  0
  3  4  2  0  0  0
  4  5  1  0  0  0
  4 11  1  0  0  0
  5  6  1  0  0  0
  5 12  1  0  0  0
  6 10  1  0  0  0
  7  8  2  0  0  0
  8  9  1  0  0  0
M  CHG  1  10  -1
M  END
> <s_m_entry_name>
Schrodinger_fragment_398

> <i_m_number_of_atoms>
13

> <r_m_molecular_weight>
137.10141

> <s_m_molecular_formula>
C4H3N5O1

> <r_epik_Ionization_Penalty>
  3.5154

> <r_epik_Ionization_Penalty_Charging>
  3.5062

> <r_epik_Ionization_Penalty_Neutral>
  0.0092

> <r_epik_State_Penalty>
  1.8009

> <i_epik_Tot_Q>
-1

> <r_epik_Metal_State_Penalty>
  1.8723

> <b_epik_Metal_Only>
0

> <s_m_entry_id>
4833

> <s_canvas_Unique_SMILES_Stereo>
n1nnc(-c12)nc[nH]c2[O-]

$$$$
Schrodinger_fragment_318
                    3D
 Structure written by MMmdl.
 15 16  0  0  1  0            999 V2000
    2.3417   -2.2687    0.0194 C   0  0  0  0  0  0
    2.4920   -3.6691    0.0235 C   0  0  0  0  0  0
    3.6631   -4.3783    0.0312 N   0  0  0  0  0  0
    4.7180   -3.5638    0.0346 C   0  0  0  0  0  0
    4.7235   -2.2193    0.0314 N   0  0  0  0  0  0
    3.5556   -1.5477    0.0238 C   0  0  0  0  0  0
    0.9981   -1.9220    0.0117 N   0  0  0  0  0  0
    0.3084   -3.0259    0.0108 N   0  0  0  0  0  0
    1.1735   -4.0852    0.0178 N   0  0  0  0  0  0
    3.6583   -0.1912    0.0211 O   0  5  0  0  0  0
    0.6513   -5.4368    0.0184 C   0  0  0  0  0  0
    5.6866   -4.0455    0.0407 H   0  0  0  0  0  0
   -0.4390   -5.4321    0.0130 H   0  0  0  0  0  0
    1.0008   -5.9605    0.9080 H   0  0  0  0  0  0
    1.0095   -5.9646   -0.8653 H   0  0  0  0  0  0
  1  2  2  0  0  0
  1  6  1  0  0  0
  1  7  1  0  0  0
  2  3  1  0  0  0
  2  9  1  0  0  0
  3  4  2  0  0  0
  4  5  1  0  0  0
  4 12  1  0  0  0
  5  6  2  0  0  0
  6 10  1  0  0  0
  7  8  2  0  0  0
  8  9  1  0  0  0
  9 11  1  0  0  0
 11 13  1  0  0  0
 11 14  1  0  0  0
 11 15  1  0  0  0
M  CHG  1  10  -1
M  END
> <s_m_entry_name>
Schrodinger_fragment_401

> <i_m_number_of_atoms>
16

> <r_m_molecular_weight>
151.1285

> <s_m_molecular_formula>
C5H5N5O1

> <r_epik_Ionization_Penalty>
  0.0989

> <r_epik_Ionization_Penalty_Charging>
  0.0000

> <r_epik_Ionization_Penalty_Neutral>
  0.0989

> <r_epik_State_Penalty>
  0.0954

> <i_epik_Tot_Q>
-1

> <r_epik_Metal_State_Penalty>
  0.0864

> <b_epik_Metal_Only>
0

> <s_m_entry_id>
4834

> <s_canvas_Unique_SMILES_Stereo>
n1nn(C)c(c12)ncnc2[O-]

$$$$
Schrodinger_fragment_318_a
                    3D
 Structure written by MMmdl.
 16 17  0  0  1  0            999 V2000
    2.3402   -2.2943    0.0194 C   0  0  0  0  0  0
    2.4265   -3.6374    0.0231 C   0  0  0  0  0  0
    3.6271   -4.3172    0.0308 N   0  0  0  0  0  0
    4.7908   -3.5513    0.0349 C   0  0  0  0  0  0
    4.8239   -2.2404    0.0319 N   0  0  0  0  0  0
    3.6164   -1.5033    0.0240 C   0  0  0  0  0  0
    0.9926   -1.9322    0.0117 N   0  0  0  0  0  0
    0.2767   -3.0285    0.0107 N   0  0  0  0  0  0
    1.1302   -4.0939    0.0176 N   0  0  0  0  0  0
    3.5825   -0.2731    0.0209 O   0  0  0  0  0  0
    0.6275   -5.4514    0.0183 C   0  0  0  0  0  0
    5.7111   -4.1396    0.0410 H   0  0  0  0  0  0
   -0.4628   -5.4569    0.0129 H   0  0  0  0  0  0
    0.9801   -5.9705    0.9092 H   0  0  0  0  0  0
    0.9888   -5.9746   -0.8667 H   0  0  0  0  0  0
    3.6429   -5.3339    0.0334 H   0  0  0  0  0  0
  1  2  2  0  0  0
  1  6  1  0  0  0
  1  7  1  0  0  0
  2  3  1  0  0  0
  2  9  1  0  0  0
  3  4  1  0  0  0
  3 16  1  0  0  0
  4  5  2  0  0  0
  4 12  1  0  0  0
  5  6  1  0  0  0
  6 10  2  0  0  0
  7  8  2  0  0  0
  8  9  1  0  0  0
  9 11  1  0  0  0
 11 13  1  0  0  0
 11 14  1  0  0  0
 11 15  1  0  0  0
M  END
> <s_m_entry_name>
Schrodinger_fragment_401

> <i_m_number_of_atoms>
16

> <r_m_molecular_weight>
151.1285

> <s_m_molecular_formula>
C5H5N5O1

> <r_epik_Ionization_Penalty>
  1.3531

> <r_epik_Ionization_Penalty_Charging>
  1.3531

> <r_epik_Ionization_Penalty_Neutral>
  0.0000

> <r_epik_State_Penalty>
  1.3848

> <i_epik_Tot_Q>
0

> <r_epik_Metal_State_Penalty>
  1.4394

> <b_epik_Metal_Only>
0

> <s_m_entry_id>
4835

> <s_canvas_Unique_SMILES_Stereo>
n1nn(C)c(c12)[nH]cnc2=O

$$$$
Schrodinger_fragment_318_b
                    3D
 Structure written by MMmdl.
 16 17  0  0  1  0            999 V2000
    2.3487   -2.2680    0.0194 C   0  0  0  0  0  0
    2.4778   -3.6184    0.0233 C   0  0  0  0  0  0
    3.6257   -4.3826    0.0310 N   0  0  0  0  0  0
    4.7049   -3.6366    0.0347 C   0  0  0  0  0  0
    4.7105   -2.2204    0.0313 N   0  0  0  0  0  0
    3.5957   -1.4570    0.0238 C   0  0  0  0  0  0
    0.9994   -1.9186    0.0117 N   0  0  0  0  0  0
    0.3011   -3.0195    0.0108 N   0  0  0  0  0  0
    1.1730   -4.0673    0.0177 N   0  0  0  0  0  0
    3.6127   -0.2217    0.0210 O   0  0  0  0  0  0
    0.6787   -5.4288    0.0185 C   0  0  0  0  0  0
    5.7082   -4.0664    0.0409 H   0  0  0  0  0  0
    5.5989   -1.7456    0.0347 H   0  0  0  0  0  0
   -0.4117   -5.4437    0.0132 H   0  0  0  0  0  0
    1.0360   -5.9457    0.9088 H   0  0  0  0  0  0
    1.0447   -5.9498   -0.8659 H   0  0  0  0  0  0
  1  2  2  0  0  0
  1  6  1  0  0  0
  1  7  1  0  0  0
  2  3  1  0  0  0
  2  9  1  0  0  0
  3  4  2  0  0  0
  4  5  1  0  0  0
  4 12  1  0  0  0
  5  6  1  0  0  0
  5 13  1  0  0  0
  6 10  2  0  0  0
  7  8  2  0  0  0
  8  9  1  0  0  0
  9 11  1  0  0  0
 11 14  1  0  0  0
 11 15  1  0  0  0
 11 16  1  0  0  0
M  END
> <s_m_entry_name>
Schrodinger_fragment_401

> <i_m_number_of_atoms>
16

> <r_m_molecular_weight>
151.1285

> <s_m_molecular_formula>
C5H5N5O1

> <r_epik_Ionization_Penalty>
  1.6893

> <r_epik_Ionization_Penalty_Charging>
  1.6893

> <r_epik_Ionization_Penalty_Neutral>
  0.0000

> <r_epik_State_Penalty>
  1.7494

> <i_epik_Tot_Q>
0

> <r_epik_Metal_State_Penalty>
  1.8040

> <b_epik_Metal_Only>
0

> <s_m_entry_id>
4836

> <s_canvas_Unique_SMILES_Stereo>
n1nn(C)c(c12)nc[nH]c2=O

$$$$
Schrodinger_fragment_319
                    3D
 Structure written by MMmdl.
 19 20  0  0  1  0            999 V2000
    2.3248   -2.2612    0.0175 C   0  0  0  0  0  0
    2.4680   -3.6082    0.0223 C   0  0  0  0  0  0
    3.6205   -4.3595    0.0297 N   0  0  0  0  0  0
    4.6917   -3.6036    0.0320 C   0  0  0  0  0  0
    4.7036   -2.1769    0.0275 N   0  0  0  0  0  0
    3.5594   -1.4318    0.0203 C   0  0  0  0  0  0
    0.9704   -1.9276    0.0105 N   0  0  0  0  0  0
    0.2844   -3.0359    0.0109 N   0  0  0  0  0  0
    1.1686   -4.0727    0.0179 N   0  0  0  0  0  0
    3.5266   -0.1941    0.0164 O   0  0  0  0  0  0
    0.6909   -5.4401    0.0199 C   0  0  0  0  0  0
    6.0325   -1.5533    0.0311 C   0  0  0  0  0  0
    5.6910   -4.0436    0.0378 H   0  0  0  0  0  0
   -0.3992   -5.4683    0.0154 H   0  0  0  0  0  0
    1.0551   -5.9522    0.9103 H   0  0  0  0  0  0
    1.0626   -5.9573   -0.8644 H   0  0  0  0  0  0
    6.0007   -0.4629    0.0269 H   0  0  0  0  0  0
    6.6012   -1.8599   -0.8480 H   0  0  0  0  0  0
    6.5934   -1.8534    0.9175 H   0  0  0  0  0  0
  1  2  2  0  0  0
  1  6  1  0  0  0
  1  7  1  0  0  0
  2  3  1  0  0  0
  2  9  1  0  0  0
  3  4  2  0  0  0
  4  5  1  0  0  0
  4 13  1  0  0  0
  5  6  1  0  0  0
  5 12  1  0  0  0
  6 10  2  0  0  0
  7  8  2  0  0  0
  8  9  1  0  0  0
  9 11  1  0  0  0
 11 14  1  0  0  0
 11 15  1  0  0  0
 11 16  1  0  0  0
 12 17  1  0  0  0
 12 18  1  0  0  0
 12 19  1  0  0  0
M  END
> <s_m_entry_name>
Schrodinger_fragment_402

> <i_m_number_of_atoms>
19

> <r_m_molecular_weight>
165.15559

> <s_m_molecular_formula>
C6H7N5O1

> <r_epik_Ionization_Penalty>
  0.0000

> <r_epik_Ionization_Penalty_Charging>
  0.0000

> <r_epik_Ionization_Penalty_Neutral>
  0.0000

> <r_epik_State_Penalty>
  0.0000

> <i_epik_Tot_Q>
0

> <r_epik_Metal_State_Penalty>
  0.0000

> <b_epik_Metal_Only>
0

> <s_m_entry_id>
4837

> <s_canvas_Unique_SMILES_Stereo>
n1nn(C)c(c12)ncn(C)c2=O

$$$$
Schrodinger_fragment_320
                    3D
 Structure written by MMmdl.
 15 16  0  0  1  0            999 V2000
    2.2946   -2.1994   -0.0536 C   0  0  0  0  0  0
    2.3564   -3.6104    0.1200 C   0  0  0  0  0  0
    3.5524   -4.2490    0.2409 N   0  0  0  0  0  0
    4.6812   -3.5263    0.1940 C   0  0  0  0  0  0
    4.7118   -2.1766    0.0311 N   0  0  0  0  0  0
    3.5371   -1.4894   -0.0949 C   0  0  0  0  0  0
    1.0152   -1.8361   -0.1441 N   0  0  0  0  0  0
    0.2982   -3.0325   -0.0247 N   0  0  0  0  0  0
    1.1360   -4.1385    0.1400 N   0  0  0  0  0  0
    3.5943   -0.1354   -0.2573 O   0  5  0  0  0  0
    6.0371   -1.5454    0.0025 C   0  0  0  0  0  0
    5.6148   -4.0694    0.2938 H   0  0  0  0  0  0
    6.0084   -0.4634   -0.1299 H   0  0  0  0  0  0
    6.6279   -1.9614   -0.8167 H   0  0  0  0  0  0
    6.5644   -1.7485    0.9372 H   0  0  0  0  0  0
  1  6  2  0  0  0
  1  2  1  0  0  0
  1  7  1  0  0  0
  2  3  1  0  0  0
  2  9  2  0  0  0
  3  4  2  0  0  0
  4  5  1  0  0  0
  4 12  1  0  0  0
  5  6  1  0  0  0
  5 11  1  0  0  0
  6 10  1  0  0  0
  7  8  2  0  0  0
  8  9  1  0  0  0
 11 13  1  0  0  0
 11 14  1  0  0  0
 11 15  1  0  0  0
M  CHG  1  10  -1
M  END
> <s_m_entry_name>
Schrodinger_fragment_403

> <i_m_number_of_atoms>
16

> <r_m_molecular_weight>
151.1285

> <s_m_molecular_formula>
C5H5N5O1

> <r_epik_Ionization_Penalty>
 10.1078

> <r_epik_Ionization_Penalty_Charging>
  0.0000

> <r_epik_Ionization_Penalty_Neutral>
 10.1078

> <r_epik_State_Penalty>
  0.2013

> <i_epik_Tot_Q>
-1

> <r_epik_Metal_State_Penalty>
  0.0003

> <b_epik_Metal_Only>
0

> <s_m_entry_id>
4838

> <s_canvas_Unique_SMILES_Stereo>
[O-]c1n(C)cnc(-c12)nnn2

$$$$
Schrodinger_fragment_320_a
                    3D
 Structure written by MMmdl.
 16 17  0  0  1  0            999 V2000
    2.2883   -2.1878   -0.0553 C   0  0  0  0  0  0
    2.3472   -3.5834    0.1164 C   0  0  0  0  0  0
    3.5481   -4.2827    0.2448 N   0  0  0  0  0  0
    4.6392   -3.5683    0.1976 C   0  0  0  0  0  0
    4.6785   -2.1609    0.0280 N   0  0  0  0  0  0
    3.5542   -1.4043   -0.1046 C   0  0  0  0  0  0
    1.0307   -1.8213   -0.1453 N   0  0  0  0  0  0
    0.3601   -3.0071   -0.0255 N   0  0  0  0  0  0
    1.1509   -4.1088    0.1369 N   0  0  0  0  0  0
    3.5565   -0.1748   -0.2539 O   0  0  0  0  0  0
    6.0200   -1.5645    0.0042 C   0  0  0  0  0  0
    5.6252   -4.0279    0.2891 H   0  0  0  0  0  0
   -0.6526   -3.0649   -0.0552 H   0  0  0  0  0  0
    6.0136   -0.4816   -0.1275 H   0  0  0  0  0  0
    6.6099   -1.9814   -0.8136 H   0  0  0  0  0  0
    6.5465   -1.7688    0.9378 H   0  0  0  0  0  0
  1  6  1  0  0  0
  1  2  1  0  0  0
  1  7  2  0  0  0
  2  3  1  0  0  0
  2  9  2  0  0  0
  3  4  2  0  0  0
  4  5  1  0  0  0
  4 12  1  0  0  0
  5  6  1  0  0  0
  5 11  1  0  0  0
  6 10  2  0  0  0
  7  8  1  0  0  0
  8 13  1  0  0  0
  8  9  1  0  0  0
 11 14  1  0  0  0
 11 15  1  0  0  0
 11 16  1  0  0  0
M  END
> <s_m_entry_name>
Schrodinger_fragment_403

> <i_m_number_of_atoms>
16

> <r_m_molecular_weight>
151.1285

> <s_m_molecular_formula>
C5H5N5O1

> <r_epik_Ionization_Penalty>
  1.0558

> <r_epik_Ionization_Penalty_Charging>
  0.0000

> <r_epik_Ionization_Penalty_Neutral>
  1.0558

> <r_epik_State_Penalty>
  1.1480

> <i_epik_Tot_Q>
0

> <r_epik_Metal_State_Penalty>
  4.9676

> <b_epik_Metal_Only>
0

> <s_m_entry_id>
4839

> <s_canvas_Unique_SMILES_Stereo>
O=c1n(C)cnc(c12)n[nH]n2

$$$$
Schrodinger_fragment_320_b
                    3D
 Structure written by MMmdl.
 16 17  0  0  1  0            999 V2000
    2.3587   -2.2289   -0.0477 C   0  0  0  0  0  0
    2.3622   -3.5632    0.1145 C   0  0  0  0  0  0
    3.5542   -4.2840    0.2452 N   0  0  0  0  0  0
    4.6558   -3.5725    0.1987 C   0  0  0  0  0  0
    4.6959   -2.1543    0.0279 N   0  0  0  0  0  0
    3.5619   -1.4093   -0.1037 C   0  0  0  0  0  0
    1.0291   -1.8976   -0.1361 N   0  0  0  0  0  0
    0.2539   -3.0131   -0.0286 N   0  0  0  0  0  0
    1.0544   -4.0402    0.1251 N   0  0  0  0  0  0
    3.5087   -0.1839   -0.2545 O   0  0  0  0  0  0
    6.0294   -1.5460    0.0023 C   0  0  0  0  0  0
    5.6409   -4.0335    0.2903 H   0  0  0  0  0  0
    0.6443   -0.9684   -0.2629 H   0  0  0  0  0  0
    6.0054   -0.4634   -0.1300 H   0  0  0  0  0  0
    6.6219   -1.9570   -0.8164 H   0  0  0  0  0  0
    6.5585   -1.7443    0.9356 H   0  0  0  0  0  0
  1  6  1  0  0  0
  1  2  2  0  0  0
  1  7  1  0  0  0
  2  3  1  0  0  0
  2  9  1  0  0  0
  3  4  2  0  0  0
  4  5  1  0  0  0
  4 12  1  0  0  0
  5  6  1  0  0  0
  5 11  1  0  0  0
  6 10  2  0  0  0
  7  8  1  0  0  0
  7 13  1  0  0  0
  8  9  2  0  0  0
 11 14  1  0  0  0
 11 15  1  0  0  0
 11 16  1  0  0  0
M  END
> <s_m_entry_name>
Schrodinger_fragment_403

> <i_m_number_of_atoms>
16

> <r_m_molecular_weight>
151.1285

> <s_m_molecular_formula>
C5H5N5O1

> <r_epik_Ionization_Penalty>
  1.5380

> <r_epik_Ionization_Penalty_Charging>
  0.0000

> <r_epik_Ionization_Penalty_Neutral>
  1.5380

> <r_epik_State_Penalty>
  1.5587

> <i_epik_Tot_Q>
0

> <r_epik_Metal_State_Penalty>
  5.3783

> <b_epik_Metal_Only>
0

> <s_m_entry_id>
4840

> <s_canvas_Unique_SMILES_Stereo>
O=c1n(C)cnc(c12)nn[nH]2

$$$$
Schrodinger_fragment_320_c
                    3D
 Structure written by MMmdl.
 16 17  0  0  1  0            999 V2000
    2.3225   -2.2622   -0.0450 C   0  0  0  0  0  0
    2.4664   -3.5990    0.1226 C   0  0  0  0  0  0
    3.6156   -4.3407    0.2543 N   0  0  0  0  0  0
    4.6876   -3.5859    0.2014 C   0  0  0  0  0  0
    4.7007   -2.1690    0.0298 N   0  0  0  0  0  0
    3.5578   -1.4327   -0.1010 C   0  0  0  0  0  0
    0.9661   -1.9398   -0.1333 N   0  0  0  0  0  0
    0.2785   -3.0428   -0.0241 N   0  0  0  0  0  0
    1.1669   -4.0582    0.1314 N   0  0  0  0  0  0
    3.5263   -0.2040   -0.2515 O   0  0  0  0  0  0
    6.0293   -1.5455    0.0022 C   0  0  0  0  0  0
    5.6859   -4.0191    0.2902 H   0  0  0  0  0  0
    0.8620   -5.0202    0.2372 H   0  0  0  0  0  0
    5.9986   -0.4632   -0.1303 H   0  0  0  0  0  0
    6.6251   -1.9511   -0.8168 H   0  0  0  0  0  0
    6.5617   -1.7385    0.9347 H   0  0  0  0  0  0
  1  6  1  0  0  0
  1  2  2  0  0  0
  1  7  1  0  0  0
  2  3  1  0  0  0
  2  9  1  0  0  0
  3  4  2  0  0  0
  4  5  1  0  0  0
  4 12  1  0  0  0
  5  6  1  0  0  0
  5 11  1  0  0  0
  6 10  2  0  0  0
  7  8  2  0  0  0
  8  9  1  0  0  0
  9 13  1  0  0  0
 11 14  1  0  0  0
 11 15  1  0  0  0
 11 16  1  0  0  0
M  END
> <s_m_entry_name>
Schrodinger_fragment_403

> <i_m_number_of_atoms>
16

> <r_m_molecular_weight>
151.1285

> <s_m_molecular_formula>
C5H5N5O1

> <r_epik_Ionization_Penalty>
  2.4777

> <r_epik_Ionization_Penalty_Charging>
  0.0000

> <r_epik_Ionization_Penalty_Neutral>
  2.4777

> <r_epik_State_Penalty>
  1.5587

> <i_epik_Tot_Q>
0

> <r_epik_Metal_State_Penalty>
  5.3783

> <b_epik_Metal_Only>
0

> <s_m_entry_id>
4841

> <s_canvas_Unique_SMILES_Stereo>
O=c1n(C)cnc(c12)[nH]nn2

$$$$
Schrodinger_fragment_321
                    3D
 Structure written by MMmdl.
 22 23  0  0  1  0            999 V2000
    1.9349    3.0669   -0.4553 C   0  0  2  0  0  0
    0.8265    2.3149   -1.2163 C   0  0  0  0  0  0
    0.3261    1.2549   -0.2133 C   0  0  0  0  0  0
    1.1870    1.4826    1.0438 C   0  0  1  0  0  0
    2.4914    0.6479    1.0120 C   0  0  0  0  0  0
    3.3235    2.4105   -0.6559 C   0  0  0  0  0  0
    3.3106    0.9112   -0.2739 C   0  0  0  0  0  0
    1.9712    4.1218   -0.7319 H   0  0  0  0  0  0
    0.0141    2.9959   -1.4734 H   0  0  0  0  0  0
    1.1872    1.8765   -2.1475 H   0  0  0  0  0  0
   -0.7273    1.4253    0.0128 H   0  0  0  0  0  0
    0.4135    0.2376   -0.5968 H   0  0  0  0  0  0
    0.6288    1.2783    1.9587 H   0  0  0  0  0  0
    3.0962    0.8890    1.8874 H   0  0  0  0  0  0
    2.2606   -0.4151    1.0929 H   0  0  0  0  0  0
    3.6492    2.5263   -1.6905 H   0  0  0  0  0  0
    4.0628    2.9365   -0.0500 H   0  0  0  0  0  0
    4.3285    0.5356   -0.1630 H   0  0  0  0  0  0
    2.8751    0.3399   -1.0949 H   0  0  0  0  0  0
    1.5506    2.9035    0.9536 N   0  3  0  0  0  0
    2.2927    3.1524    1.5868 H   0  0  0  0  0  0
    0.7452    3.4743    1.1549 H   0  0  0  0  0  0
  1  2  1  0  0  0
  1  6  1  0  0  0
  1  8  1  0  0  0
  1 20  1  0  0  0
  2  3  1  0  0  0
  2  9  1  0  0  0
  2 10  1  0  0  0
  3  4  1  0  0  0
  3 11  1  0  0  0
  3 12  1  0  0  0
  4  5  1  0  0  0
  4 13  1  0  0  0
  4 20  1  0  0  0
  5  7  1  0  0  0
  5 14  1  0  0  0
  5 15  1  0  0  0
  6  7  1  0  0  0
  6 16  1  0  0  0
  6 17  1  0  0  0
  7 18  1  0  0  0
  7 19  1  0  0  0
 20 21  1  0  0  0
 20 22  1  0  0  0
M  CHG  1  20   1
M  END
> <s_m_entry_name>
Schrodinger_fragment_406

> <i_m_number_of_atoms>
22

> <r_m_molecular_weight>
112.19633

> <s_m_molecular_formula>
C7H14N1

> <r_epik_Ionization_Penalty>
  0.0004

> <r_epik_Ionization_Penalty_Charging>
  0.0004

> <r_epik_Ionization_Penalty_Neutral>
  0.0000

> <r_epik_State_Penalty>
  0.0000

> <i_epik_Tot_Q>
1

> <r_epik_Metal_State_Penalty>
  0.0000

> <b_epik_Metal_Only>
0

> <s_m_entry_id>
4842

> <s_canvas_Unique_SMILES_Stereo>
[C@@H]12CC[C@H]([NH2+]2)CCC1

$$$$
Schrodinger_fragment_322
                    3D
 Structure written by MMmdl.
 25 26  0  0  1  0            999 V2000
    1.7949   -2.0755   -1.1354 C   0  0  2  0  0  0
    0.8157   -3.2354   -1.3991 C   0  0  0  0  0  0
    0.3949   -3.7116    0.0092 C   0  0  0  0  0  0
    1.1650   -2.7883    0.9727 C   0  0  1  0  0  0
    2.5527   -3.3874    1.3271 C   0  0  0  0  0  0
    3.2533   -2.5947   -1.0175 C   0  0  0  0  0  0
    3.3930   -3.6914    0.0644 C   0  0  0  0  0  0
    2.0716   -0.4323    0.7715 C   0  0  0  0  0  0
    1.7237   -1.3103   -1.9101 H   0  0  0  0  0  0
   -0.0576   -2.8775   -1.9462 H   0  0  0  0  0  0
    1.2640   -4.0309   -1.9955 H   0  0  0  0  0  0
   -0.6806   -3.5826    0.1387 H   0  0  0  0  0  0
    0.6143   -4.7664    0.1794 H   0  0  0  0  0  0
    0.5912   -2.5918    1.8798 H   0  0  0  0  0  0
    3.0981   -2.7107    1.9847 H   0  0  0  0  0  0
    2.4229   -4.3029    1.9056 H   0  0  0  0  0  0
    3.5836   -2.9893   -1.9791 H   0  0  0  0  0  0
    3.9306   -1.7685   -0.8016 H   0  0  0  0  0  0
    4.4411   -3.8373    0.3282 H   0  0  0  0  0  0
    3.0634   -4.6427   -0.3558 H   0  0  0  0  0  0
    1.5914   -0.1196    1.6987 H   0  0  0  0  0  0
    2.0705    0.4225    0.0954 H   0  0  0  0  0  0
    3.1087   -0.6709    1.0008 H   0  0  0  0  0  0
    1.3261   -1.5622    0.1667 N   0  3  1  0  0  0
    0.3932   -1.2117    0.0065 H   0  0  0  0  0  0
  1  2  1  0  0  0
  1  6  1  0  0  0
  1  9  1  0  0  0
  1 24  1  0  0  0
  2  3  1  0  0  0
  2 10  1  0  0  0
  2 11  1  0  0  0
  3  4  1  0  0  0
  3 12  1  0  0  0
  3 13  1  0  0  0
  4  5  1  0  0  0
  4 14  1  0  0  0
  4 24  1  0  0  0
  5  7  1  0  0  0
  5 15  1  0  0  0
  5 16  1  0  0  0
  6  7  1  0  0  0
  6 17  1  0  0  0
  6 18  1  0  0  0
  7 19  1  0  0  0
  7 20  1  0  0  0
  8 21  1  0  0  0
  8 22  1  0  0  0
  8 23  1  0  0  0
  8 24  1  0  0  0
 24 25  1  0  0  0
M  CHG  1  24   1
M  END
> <s_m_entry_name>
Schrodinger_fragment_407

> <i_m_number_of_atoms>
25

> <r_m_molecular_weight>
126.22342

> <s_m_molecular_formula>
C8H16N1

> <r_epik_Ionization_Penalty>
  0.0005

> <r_epik_Ionization_Penalty_Charging>
  0.0005

> <r_epik_Ionization_Penalty_Neutral>
  0.0000

> <r_epik_State_Penalty>
  0.0000

> <i_epik_Tot_Q>
1

> <r_epik_Metal_State_Penalty>
  0.0000

> <b_epik_Metal_Only>
0

> <s_m_entry_id>
4843

> <s_canvas_Unique_SMILES_Stereo>
C1CC[C@@H]([N@H+]2C)CC[C@H]12

$$$$
Schrodinger_fragment_323
                    3D
 Structure written by MMmdl.
 24 25  0  0  1  0            999 V2000
    2.2172    3.6292   -0.1920 N   0  0  0  0  0  0
    2.2088    2.2603    0.1956 N   0  0  0  0  0  0
    0.8548    1.8465    0.5407 C   0  0  0  0  0  0
   -0.0263    3.0568    0.1961 C   0  0  0  0  0  0
    0.8732    4.0277   -0.5794 C   0  0  0  0  0  0
    3.2176    4.4845    0.1322 C   0  0  0  0  0  0
    4.4380    3.9425    0.8858 C   0  0  0  0  0  0
    5.2754    2.9418    0.0589 C   0  0  0  0  0  0
    4.4680    1.9427   -0.7990 C   0  0  0  0  0  0
    3.2186    1.4037   -0.0923 C   0  0  0  0  0  0
    3.1489    0.2005    0.1656 O   0  0  0  0  0  0
    3.1632    5.6877   -0.1296 O   0  0  0  0  0  0
    0.5574    0.9770   -0.0484 H   0  0  0  0  0  0
    0.7851    1.5792    1.5959 H   0  0  0  0  0  0
   -0.9137    2.7766   -0.3723 H   0  0  0  0  0  0
   -0.3669    3.5306    1.1176 H   0  0  0  0  0  0
    0.6397    5.0667   -0.3398 H   0  0  0  0  0  0
    0.7601    3.8954   -1.6561 H   0  0  0  0  0  0
    5.0684    4.7730    1.2057 H   0  0  0  0  0  0
    4.0875    3.4724    1.8057 H   0  0  0  0  0  0
    5.9476    3.4972   -0.5961 H   0  0  0  0  0  0
    5.9212    2.3852    0.7389 H   0  0  0  0  0  0
    4.1536    2.4133   -1.7317 H   0  0  0  0  0  0
    5.1082    1.1107   -1.0944 H   0  0  0  0  0  0
  1  2  1  0  0  0
  1  5  1  0  0  0
  1  6  1  0  0  0
  2  3  1  0  0  0
  2 10  1  0  0  0
  3  4  1  0  0  0
  3 13  1  0  0  0
  3 14  1  0  0  0
  4  5  1  0  0  0
  4 15  1  0  0  0
  4 16  1  0  0  0
  5 17  1  0  0  0
  5 18  1  0  0  0
  6  7  1  0  0  0
  6 12  2  0  0  0
  7  8  1  0  0  0
  7 19  1  0  0  0
  7 20  1  0  0  0
  8  9  1  0  0  0
  8 21  1  0  0  0
  8 22  1  0  0  0
  9 10  1  0  0  0
  9 23  1  0  0  0
  9 24  1  0  0  0
 10 11  2  0  0  0
M  END
> <s_m_entry_name>
Schrodinger_fragment_408

> <i_m_number_of_atoms>
24

> <r_m_molecular_weight>
168.19704

> <s_m_molecular_formula>
C8H12N2O2

> <r_epik_Ionization_Penalty>
  0.0000

> <r_epik_Ionization_Penalty_Charging>
  0.0000

> <r_epik_Ionization_Penalty_Neutral>
  0.0000

> <r_epik_State_Penalty>
  0.0000

> <i_epik_Tot_Q>
0

> <r_epik_Metal_State_Penalty>
  0.0000

> <b_epik_Metal_Only>
0

> <s_m_entry_id>
4844

> <s_canvas_Unique_SMILES_Stereo>
C1CCN(N12)C(=O)CCCC2=O

$$$$
Schrodinger_fragment_324
                    3D
 Structure written by MMmdl.
 21 22  0  0  1  0            999 V2000
    2.4899    2.1572    0.0333 C   0  0  0  0  0  0
    2.4836    0.7383    0.1043 C   0  0  0  0  0  0
    3.7039    0.0295    0.1108 C   0  0  0  0  0  0
    4.9286    0.7190    0.0406 C   0  0  0  0  0  0
    4.9407    2.1233   -0.0365 C   0  0  0  0  0  0
    3.7274    2.8379   -0.0409 C   0  0  0  0  0  0
    1.2197    2.9435    0.0225 C   0  0  0  0  0  0
   -0.0839    2.1630    0.2034 C   0  0  0  0  0  0
   -0.0075    0.7461   -0.3849 C   0  0  0  0  0  0
    1.1803   -0.0436    0.1800 C   0  0  0  0  0  0
    1.1742    4.1710   -0.1020 O   0  0  0  0  0  0
    3.7056   -1.0508    0.1692 H   0  0  0  0  0  0
    5.8601    0.1692    0.0451 H   0  0  0  0  0  0
    5.8816    2.6540   -0.0919 H   0  0  0  0  0  0
    3.7530    3.9179   -0.1003 H   0  0  0  0  0  0
   -0.3018    2.1131    1.2700 H   0  0  0  0  0  0
   -0.8984    2.7182   -0.2616 H   0  0  0  0  0  0
   -0.9369    0.2084   -0.1960 H   0  0  0  0  0  0
    0.0896    0.8170   -1.4695 H   0  0  0  0  0  0
    1.2822   -0.9893   -0.3550 H   0  0  0  0  0  0
    0.9944   -0.2966    1.2249 H   0  0  0  0  0  0
  1  2  2  0  0  0
  1  6  1  0  0  0
  1  7  1  0  0  0
  2  3  1  0  0  0
  2 10  1  0  0  0
  3  4  2  0  0  0
  3 12  1  0  0  0
  4  5  1  0  0  0
  4 13  1  0  0  0
  5  6  2  0  0  0
  5 14  1  0  0  0
  6 15  1  0  0  0
  7  8  1  0  0  0
  7 11  2  0  0  0
  8  9  1  0  0  0
  8 16  1  0  0  0
  8 17  1  0  0  0
  9 10  1  0  0  0
  9 18  1  0  0  0
  9 19  1  0  0  0
 10 20  1  0  0  0
 10 21  1  0  0  0
M  END
> <s_m_entry_name>
Schrodinger_fragment_409

> <i_m_number_of_atoms>
21

> <r_m_molecular_weight>
146.1906

> <s_m_molecular_formula>
C10H10O1

> <r_epik_Ionization_Penalty>
  0.0000

> <r_epik_Ionization_Penalty_Charging>
  0.0000

> <r_epik_Ionization_Penalty_Neutral>
  0.0000

> <r_epik_State_Penalty>
  0.0000

> <i_epik_Tot_Q>
0

> <r_epik_Metal_State_Penalty>
  0.0000

> <b_epik_Metal_Only>
0

> <s_m_entry_id>
4845

> <s_canvas_Unique_SMILES_Stereo>
c1cccc(c12)CCCC2=O

$$$$
Schrodinger_fragment_325
                    3D
 Structure written by MMmdl.
 20 21  0  0  1  0            999 V2000
    2.4691    2.1511   -0.0114 C   0  0  0  0  0  0
    2.4383    0.7351    0.0593 C   0  0  0  0  0  0
    3.6509    0.0191    0.1082 C   0  0  0  0  0  0
    4.8839    0.6984    0.0674 C   0  0  0  0  0  0
    4.9114    2.1033   -0.0162 C   0  0  0  0  0  0
    3.7052    2.8285   -0.0539 C   0  0  0  0  0  0
    1.1763    2.9460   -0.0372 C   0  0  0  0  0  0
   -0.0216    2.0818    0.3651 C   0  0  0  0  0  0
    0.0799    0.7075   -0.3047 C   0  0  0  0  0  0
    1.2600    0.0239    0.1129 O   0  0  0  0  0  0
    3.6368   -1.0600    0.1737 H   0  0  0  0  0  0
    5.8094    0.1400    0.1009 H   0  0  0  0  0  0
    5.8581    2.6255   -0.0476 H   0  0  0  0  0  0
    3.7321    3.9082   -0.1121 H   0  0  0  0  0  0
    1.2535    3.8147    0.6177 H   0  0  0  0  0  0
    1.0340    3.3241   -1.0503 H   0  0  0  0  0  0
   -0.0319    1.9470    1.4474 H   0  0  0  0  0  0
   -0.9557    2.5792    0.1024 H   0  0  0  0  0  0
   -0.7861    0.0988   -0.0436 H   0  0  0  0  0  0
    0.0800    0.8069   -1.3913 H   0  0  0  0  0  0
  1  2  2  0  0  0
  1  6  1  0  0  0
  1  7  1  0  0  0
  2  3  1  0  0  0
  2 10  1  0  0  0
  3  4  2  0  0  0
  3 11  1  0  0  0
  4  5  1  0  0  0
  4 12  1  0  0  0
  5  6  2  0  0  0
  5 13  1  0  0  0
  6 14  1  0  0  0
  7  8  1  0  0  0
  7 15  1  0  0  0
  7 16  1  0  0  0
  8  9  1  0  0  0
  8 17  1  0  0  0
  8 18  1  0  0  0
  9 10  1  0  0  0
  9 19  1  0  0  0
  9 20  1  0  0  0
M  END
> <s_m_entry_name>
Schrodinger_fragment_410

> <i_m_number_of_atoms>
20

> <r_m_molecular_weight>
134.17945

> <s_m_molecular_formula>
C9H10O1

> <r_epik_Ionization_Penalty>
  0.0000

> <r_epik_Ionization_Penalty_Charging>
  0.0000

> <r_epik_Ionization_Penalty_Neutral>
  0.0000

> <r_epik_State_Penalty>
  0.0000

> <i_epik_Tot_Q>
0

> <r_epik_Metal_State_Penalty>
  0.0000

> <b_epik_Metal_Only>
0

> <s_m_entry_id>
4846

> <s_canvas_Unique_SMILES_Stereo>
C1CCOc(c12)cccc2

$$$$
Schrodinger_fragment_326
                    3D
 Structure written by MMmdl.
 17 18  0  0  1  0            999 V2000
    6.1058    2.1246    0.0288 C   0  0  0  0  0  0
    6.0840    0.7158    0.0310 C   0  0  0  0  0  0
    4.8538    0.0283    0.0286 C   0  0  0  0  0  0
    3.6401    0.7451    0.0240 C   0  0  0  0  0  0
    3.6691    2.1563    0.0218 C   0  0  0  0  0  0
    4.8969    2.8476    0.0242 C   0  0  0  0  0  0
    2.4454    0.0532    0.0217 O   0  0  0  0  0  0
    1.2176    0.6716    0.0172 C   0  0  0  0  0  0
    1.2324    2.1539    0.0149 C   0  0  0  0  0  0
    2.3848    2.8455    0.0170 C   0  0  0  0  0  0
    0.1699    0.0226    0.0153 O   0  0  0  0  0  0
    7.0505    2.6513    0.0306 H   0  0  0  0  0  0
    7.0121    0.1607    0.0345 H   0  0  0  0  0  0
    4.8422   -1.0525    0.0303 H   0  0  0  0  0  0
    4.9161    3.9286    0.0225 H   0  0  0  0  0  0
    0.2833    2.6688    0.0113 H   0  0  0  0  0  0
    2.3797    3.9259    0.0153 H   0  0  0  0  0  0
  1  2  2  0  0  0
  1  6  1  0  0  0
  1 12  1  0  0  0
  2  3  1  0  0  0
  2 13  1  0  0  0
  3  4  2  0  0  0
  3 14  1  0  0  0
  4  5  1  0  0  0
  4  7  1  0  0  0
  5  6  2  0  0  0
  5 10  1  0  0  0
  6 15  1  0  0  0
  7  8  1  0  0  0
  8  9  1  0  0  0
  8 11  2  0  0  0
  9 10  2  0  0  0
  9 16  1  0  0  0
 10 17  1  0  0  0
M  END
> <s_m_entry_name>
Schrodinger_fragment_411

> <i_m_number_of_atoms>
17

> <r_m_molecular_weight>
146.14697

> <s_m_molecular_formula>
C9H6O2

> <r_epik_Ionization_Penalty>
  0.0000

> <r_epik_Ionization_Penalty_Charging>
  0.0000

> <r_epik_Ionization_Penalty_Neutral>
  0.0000

> <r_epik_State_Penalty>
  0.0000

> <i_epik_Tot_Q>
0

> <r_epik_Metal_State_Penalty>
  0.0000

> <b_epik_Metal_Only>
0

> <s_m_entry_id>
4847

> <s_canvas_Unique_SMILES_Stereo>
c1cccc(c12)oc(=O)cc2

$$$$
Schrodinger_fragment_327
                    3D
 Structure written by MMmdl.
 18 19  0  0  1  0            999 V2000
    2.4290    2.1422   -0.0089 C   0  0  0  0  0  0
    2.4272    0.7233    0.0570 C   0  0  0  0  0  0
    3.6495    0.0252    0.1107 C   0  0  0  0  0  0
    4.8701    0.7272    0.0747 C   0  0  0  0  0  0
    4.8719    2.1327   -0.0136 C   0  0  0  0  0  0
    3.6532    2.8374   -0.0561 C   0  0  0  0  0  0
    1.2547    2.8590   -0.0371 O   0  0  0  0  0  0
    0.1018    2.1218    0.3629 C   0  0  0  0  0  0
    0.1021    0.7489   -0.3272 C   0  0  0  0  0  0
    1.2511    0.0091    0.0789 O   0  0  0  0  0  0
    3.6522   -1.0540    0.1713 H   0  0  0  0  0  0
    5.8056    0.1860    0.1109 H   0  0  0  0  0  0
    5.8089    2.6718   -0.0448 H   0  0  0  0  0  0
    3.6586    3.9167   -0.1167 H   0  0  0  0  0  0
    0.0903    2.0100    1.4481 H   0  0  0  0  0  0
   -0.7913    2.6834    0.0884 H   0  0  0  0  0  0
   -0.7938    0.1893   -0.0574 H   0  0  0  0  0  0
    0.0966    0.8607   -1.4124 H   0  0  0  0  0  0
  1  2  2  0  0  0
  1  6  1  0  0  0
  1  7  1  0  0  0
  2  3  1  0  0  0
  2 10  1  0  0  0
  3  4  2  0  0  0
  3 11  1  0  0  0
  4  5  1  0  0  0
  4 12  1  0  0  0
  5  6  2  0  0  0
  5 13  1  0  0  0
  6 14  1  0  0  0
  7  8  1  0  0  0
  8  9  1  0  0  0
  8 15  1  0  0  0
  8 16  1  0  0  0
  9 10  1  0  0  0
  9 17  1  0  0  0
  9 18  1  0  0  0
M  END
> <s_m_entry_name>
Schrodinger_fragment_412

> <i_m_number_of_atoms>
18

> <r_m_molecular_weight>
136.15176

> <s_m_molecular_formula>
C8H8O2

> <r_epik_Ionization_Penalty>
  0.0000

> <r_epik_Ionization_Penalty_Charging>
  0.0000

> <r_epik_Ionization_Penalty_Neutral>
  0.0000

> <r_epik_State_Penalty>
  0.0000

> <i_epik_Tot_Q>
0

> <r_epik_Metal_State_Penalty>
  0.0000

> <b_epik_Metal_Only>
0

> <s_m_entry_id>
4848

> <s_canvas_Unique_SMILES_Stereo>
O1CCOc(c12)cccc2

$$$$
Schrodinger_fragment_328
                    3D
 Structure written by MMmdl.
 17 18  0  0  1  0            999 V2000
   -0.0215    2.1269    0.0310 C   0  0  0  0  0  0
    0.0614    0.7831    0.0318 C   0  0  0  0  0  0
    1.2423    0.0804    0.0284 O   0  0  0  0  0  0
    2.4323    0.7736    0.0239 C   0  0  0  0  0  0
    2.4728    2.1896    0.0226 C   0  0  0  0  0  0
    1.1952    2.9461    0.0262 C   0  0  0  0  0  0
    3.6374    0.0430    0.0205 C   0  0  0  0  0  0
    4.8766    0.7124    0.0158 C   0  0  0  0  0  0
    4.9175    2.1197    0.0145 C   0  0  0  0  0  0
    3.7179    2.8582    0.0179 C   0  0  0  0  0  0
    1.1480    4.1807    0.0254 O   0  0  0  0  0  0
   -0.9780    2.6269    0.0337 H   0  0  0  0  0  0
   -0.7994    0.1300    0.0352 H   0  0  0  0  0  0
    3.6110   -1.0378    0.0214 H   0  0  0  0  0  0
    5.7968    0.1445    0.0132 H   0  0  0  0  0  0
    5.8695    2.6334    0.0109 H   0  0  0  0  0  0
    3.7573    3.9391    0.0168 H   0  0  0  0  0  0
  1  2  2  0  0  0
  1  6  1  0  0  0
  1 12  1  0  0  0
  2  3  1  0  0  0
  2 13  1  0  0  0
  3  4  1  0  0  0
  4  5  2  0  0  0
  4  7  1  0  0  0
  5  6  1  0  0  0
  5 10  1  0  0  0
  6 11  2  0  0  0
  7  8  2  0  0  0
  7 14  1  0  0  0
  8  9  1  0  0  0
  8 15  1  0  0  0
  9 10  2  0  0  0
  9 16  1  0  0  0
 10 17  1  0  0  0
M  END
> <s_m_entry_name>
Schrodinger_fragment_413

> <i_m_number_of_atoms>
17

> <r_m_molecular_weight>
146.14697

> <s_m_molecular_formula>
C9H6O2

> <r_epik_Ionization_Penalty>
  0.0000

> <r_epik_Ionization_Penalty_Charging>
  0.0000

> <r_epik_Ionization_Penalty_Neutral>
  0.0000

> <r_epik_State_Penalty>
  0.0000

> <i_epik_Tot_Q>
0

> <r_epik_Metal_State_Penalty>
  0.0000

> <b_epik_Metal_Only>
0

> <s_m_entry_id>
4849

> <s_canvas_Unique_SMILES_Stereo>
c1cccc(c12)occc2=O

$$$$
Schrodinger_fragment_329
                    3D
 Structure written by MMmdl.
 18 19  0  0  1  0            999 V2000
    3.6733    2.1483    0.0203 C   0  0  0  0  0  0
    3.6568    0.7386    0.0272 C   0  0  0  0  0  0
    4.8661    0.0149    0.0333 C   0  0  0  0  0  0
    6.0928    0.7089    0.0324 C   0  0  0  0  0  0
    6.1098    2.1189    0.0256 C   0  0  0  0  0  0
    4.8995    2.8414    0.0195 C   0  0  0  0  0  0
    2.3774    2.8283    0.0143 C   0  0  0  0  0  0
    1.2215    2.1322    0.0152 C   0  0  0  0  0  0
    1.1991    0.6682    0.0224 C   0  0  0  0  0  0
    2.4067    0.0671    0.0279 N   0  0  0  0  0  0
    0.1635    0.0021    0.0235 O   0  0  0  0  0  0
    4.8623   -1.0663    0.0386 H   0  0  0  0  0  0
    7.0233    0.1580    0.0371 H   0  0  0  0  0  0
    7.0533    2.6475    0.0249 H   0  0  0  0  0  0
    4.9169    3.9224    0.0142 H   0  0  0  0  0  0
    2.3674    3.9088    0.0089 H   0  0  0  0  0  0
    0.2823    2.6658    0.0107 H   0  0  0  0  0  0
    2.4191   -0.9427    0.0329 H   0  0  0  0  0  0
  1  2  2  0  0  0
  1  6  1  0  0  0
  1  7  1  0  0  0
  2  3  1  0  0  0
  2 10  1  0  0  0
  3  4  2  0  0  0
  3 12  1  0  0  0
  4  5  1  0  0  0
  4 13  1  0  0  0
  5  6  2  0  0  0
  5 14  1  0  0  0
  6 15  1  0  0  0
  7  8  2  0  0  0
  7 16  1  0  0  0
  8  9  1  0  0  0
  8 17  1  0  0  0
  9 10  1  0  0  0
  9 11  2  0  0  0
 10 18  1  0  0  0
M  END
> <s_m_entry_name>
Schrodinger_fragment_414

> <i_m_number_of_atoms>
18

> <r_m_molecular_weight>
145.16224

> <s_m_molecular_formula>
C9H7N1O1

> <r_epik_Ionization_Penalty>
  0.0000

> <r_epik_Ionization_Penalty_Charging>
  0.0000

> <r_epik_Ionization_Penalty_Neutral>
  0.0000

> <r_epik_State_Penalty>
  0.0000

> <i_epik_Tot_Q>
0

> <r_epik_Metal_State_Penalty>
  0.0463

> <b_epik_Metal_Only>
0

> <s_m_entry_id>
4850

> <s_canvas_Unique_SMILES_Stereo>
c1cccc(c12)[nH]c(=O)cc2

$$$$
Schrodinger_fragment_329_a
                    3D
 Structure written by MMmdl.
 17 18  0  0  1  0            999 V2000
    3.6522    2.1490    0.0203 C   0  0  0  0  0  0
    3.6161    0.7294    0.0272 C   0  0  0  0  0  0
    4.8382    0.0314    0.0331 C   0  0  0  0  0  0
    6.0711    0.7167    0.0324 C   0  0  0  0  0  0
    6.0926    2.1241    0.0255 C   0  0  0  0  0  0
    4.8818    2.8427    0.0194 C   0  0  0  0  0  0
    2.4340    2.8584    0.0142 C   0  0  0  0  0  0
    1.2304    2.1277    0.0153 C   0  0  0  0  0  0
    1.2972    0.7325    0.0223 C   0  0  0  0  0  0
    2.4422    0.0426    0.0281 N   0  0  0  0  0  0
    0.1830   -0.0364    0.0237 O   0  5  0  0  0  0
    4.8375   -1.0501    0.0385 H   0  0  0  0  0  0
    6.9997    0.1614    0.0370 H   0  0  0  0  0  0
    7.0392    2.6517    0.0249 H   0  0  0  0  0  0
    4.8992    3.9242    0.0142 H   0  0  0  0  0  0
    2.4193    3.9392    0.0089 H   0  0  0  0  0  0
    0.2771    2.6475    0.0107 H   0  0  0  0  0  0
  1  2  2  0  0  0
  1  6  1  0  0  0
  1  7  1  0  0  0
  2  3  1  0  0  0
  2 10  1  0  0  0
  3  4  2  0  0  0
  3 12  1  0  0  0
  4  5  1  0  0  0
  4 13  1  0  0  0
  5  6  2  0  0  0
  5 14  1  0  0  0
  6 15  1  0  0  0
  7  8  2  0  0  0
  7 16  1  0  0  0
  8  9  1  0  0  0
  8 17  1  0  0  0
  9 10  2  0  0  0
  9 11  1  0  0  0
M  CHG  1  11  -1
M  END
> <s_m_entry_name>
Schrodinger_fragment_414

> <i_m_number_of_atoms>
18

> <r_m_molecular_weight>
145.16224

> <s_m_molecular_formula>
C9H7N1O1

> <r_epik_Ionization_Penalty>
  5.6780

> <r_epik_Ionization_Penalty_Charging>
  0.0979

> <r_epik_Ionization_Penalty_Neutral>
  5.5801

> <r_epik_State_Penalty>
  5.5801

> <i_epik_Tot_Q>
-1

> <r_epik_Metal_State_Penalty>
  1.5336

> <b_epik_Metal_Only>
1

> <s_m_entry_id>
4851

> <s_canvas_Unique_SMILES_Stereo>
c1cccc(c12)nc([O-])cc2

$$$$
Schrodinger_fragment_330
                    3D
 Structure written by MMmdl.
 21 22  0  0  1  0            999 V2000
    3.8743   -0.6926    0.0204 C   0  0  0  0  0  0
    3.8515   -2.1059    0.0256 C   0  0  0  0  0  0
    5.0872   -2.8020    0.0287 C   0  0  0  0  0  0
    6.3068   -2.0969    0.0266 C   0  0  0  0  0  0
    6.3114   -0.6900    0.0213 C   0  0  0  0  0  0
    5.0933    0.0136    0.0182 C   0  0  0  0  0  0
    2.5949    0.0025    0.0173 C   0  0  0  0  0  0
    1.4345   -0.6752    0.0194 C   0  0  0  0  0  0
    1.3798   -2.1360    0.0248 C   0  0  0  0  0  0
    2.5823   -2.7926    0.0277 N   0  0  0  0  0  0
    0.2955   -2.7292    0.0266 O   0  0  0  0  0  0
    2.5929   -4.2653    0.0332 C   0  0  0  0  0  0
    5.1303   -3.8814    0.0328 H   0  0  0  0  0  0
    7.2427   -2.6390    0.0290 H   0  0  0  0  0  0
    7.2487   -0.1505    0.0197 H   0  0  0  0  0  0
    5.0990    1.0949    0.0142 H   0  0  0  0  0  0
    2.5985    1.0835    0.0133 H   0  0  0  0  0  0
    0.5052   -0.1254    0.0170 H   0  0  0  0  0  0
    1.6081   -4.7330    0.0346 H   0  0  0  0  0  0
    3.1101   -4.6339    0.9193 H   0  0  0  0  0  0
    3.1108   -4.6405   -0.8497 H   0  0  0  0  0  0
  1  2  2  0  0  0
  1  6  1  0  0  0
  1  7  1  0  0  0
  2  3  1  0  0  0
  2 10  1  0  0  0
  3  4  2  0  0  0
  3 13  1  0  0  0
  4  5  1  0  0  0
  4 14  1  0  0  0
  5  6  2  0  0  0
  5 15  1  0  0  0
  6 16  1  0  0  0
  7  8  2  0  0  0
  7 17  1  0  0  0
  8  9  1  0  0  0
  8 18  1  0  0  0
  9 10  1  0  0  0
  9 11  2  0  0  0
 10 12  1  0  0  0
 12 19  1  0  0  0
 12 20  1  0  0  0
 12 21  1  0  0  0
M  END
> <s_m_entry_name>
Schrodinger_fragment_415

> <i_m_number_of_atoms>
21

> <r_m_molecular_weight>
159.18933

> <s_m_molecular_formula>
C10H9N1O1

> <r_epik_Ionization_Penalty>
  0.0000

> <r_epik_Ionization_Penalty_Charging>
  0.0000

> <r_epik_Ionization_Penalty_Neutral>
  0.0000

> <r_epik_State_Penalty>
  0.0000

> <i_epik_Tot_Q>
0

> <r_epik_Metal_State_Penalty>
  0.0000

> <b_epik_Metal_Only>
0

> <s_m_entry_id>
4852

> <s_canvas_Unique_SMILES_Stereo>
c1cc(=O)n(C)c(c12)cccc2

$$$$
Schrodinger_fragment_331
                    3D
 Structure written by MMmdl.
 18 19  0  0  1  0            999 V2000
    2.4700    2.1727    0.0217 C   0  0  0  0  0  0
    2.4396    0.7515    0.0259 C   0  0  0  0  0  0
    3.6454    0.0213    0.0314 C   0  0  0  0  0  0
    4.8808    0.6980    0.0328 C   0  0  0  0  0  0
    4.9164    2.1058    0.0286 C   0  0  0  0  0  0
    3.7149    2.8416    0.0231 C   0  0  0  0  0  0
    1.1864    2.9435    0.0158 C   0  0  0  0  0  0
   -0.0441    2.1252    0.0149 C   0  0  0  0  0  0
    0.0459    0.7804    0.0192 C   0  0  0  0  0  0
    1.2564    0.1034    0.0246 N   0  0  0  0  0  0
    1.1458    4.1790    0.0120 O   0  0  0  0  0  0
    3.6339   -1.0598    0.0347 H   0  0  0  0  0  0
    5.8034    0.1343    0.0370 H   0  0  0  0  0  0
    5.8668    2.6224    0.0297 H   0  0  0  0  0  0
    3.7523    3.9224    0.0199 H   0  0  0  0  0  0
   -1.0000    2.6283    0.0107 H   0  0  0  0  0  0
   -0.8272    0.1410    0.0187 H   0  0  0  0  0  0
    1.2661   -0.9147    0.0277 H   0  0  0  0  0  0
  1  2  2  0  0  0
  1  6  1  0  0  0
  1  7  1  0  0  0
  2  3  1  0  0  0
  2 10  1  0  0  0
  3  4  2  0  0  0
  3 12  1  0  0  0
  4  5  1  0  0  0
  4 13  1  0  0  0
  5  6  2  0  0  0
  5 14  1  0  0  0
  6 15  1  0  0  0
  7  8  1  0  0  0
  7 11  2  0  0  0
  8  9  2  0  0  0
  8 16  1  0  0  0
  9 10  1  0  0  0
  9 17  1  0  0  0
 10 18  1  0  0  0
M  END
> <s_m_entry_name>
Schrodinger_fragment_416

> <i_m_number_of_atoms>
18

> <r_m_molecular_weight>
145.16224

> <s_m_molecular_formula>
C9H7N1O1

> <r_epik_Ionization_Penalty>
  0.0002

> <r_epik_Ionization_Penalty_Charging>
  0.0002

> <r_epik_Ionization_Penalty_Neutral>
  0.0000

> <r_epik_State_Penalty>
  0.0000

> <i_epik_Tot_Q>
0

> <r_epik_Metal_State_Penalty>
  0.0761

> <b_epik_Metal_Only>
0

> <s_m_entry_id>
4853

> <s_canvas_Unique_SMILES_Stereo>
c1cccc(c12)[nH]ccc2=O

$$$$
Schrodinger_fragment_331_a
                    3D
 Structure written by MMmdl.
 17 18  0  0  1  0            999 V2000
    2.4492    2.1724    0.0216 C   0  0  0  0  0  0
    2.4116    0.7446    0.0258 C   0  0  0  0  0  0
    3.6313    0.0377    0.0313 C   0  0  0  0  0  0
    4.8686    0.7103    0.0327 C   0  0  0  0  0  0
    4.8991    2.1160    0.0286 C   0  0  0  0  0  0
    3.6942    2.8451    0.0230 C   0  0  0  0  0  0
    1.2250    2.8858    0.0161 C   0  0  0  0  0  0
    0.0306    2.1534    0.0150 C   0  0  0  0  0  0
    0.0874    0.7462    0.0194 C   0  0  0  0  0  0
    1.2473    0.0554    0.0247 N   0  0  0  0  0  0
    1.1542    4.2514    0.0118 O   0  5  0  0  0  0
    3.6137   -1.0430    0.0346 H   0  0  0  0  0  0
    5.7932    0.1479    0.0370 H   0  0  0  0  0  0
    5.8493    2.6371    0.0296 H   0  0  0  0  0  0
    3.7278    3.9259    0.0199 H   0  0  0  0  0  0
   -0.9405    2.6373    0.0109 H   0  0  0  0  0  0
   -0.8225    0.1628    0.0187 H   0  0  0  0  0  0
  1  2  2  0  0  0
  1  6  1  0  0  0
  1  7  1  0  0  0
  2  3  1  0  0  0
  2 10  1  0  0  0
  3  4  2  0  0  0
  3 12  1  0  0  0
  4  5  1  0  0  0
  4 13  1  0  0  0
  5  6  2  0  0  0
  5 14  1  0  0  0
  6 15  1  0  0  0
  7  8  2  0  0  0
  7 11  1  0  0  0
  8  9  1  0  0  0
  8 16  1  0  0  0
  9 10  2  0  0  0
  9 17  1  0  0  0
M  CHG  1  11  -1
M  END
> <s_m_entry_name>
Schrodinger_fragment_416

> <i_m_number_of_atoms>
18

> <r_m_molecular_weight>
145.16224

> <s_m_molecular_formula>
C9H7N1O1

> <r_epik_Ionization_Penalty>
  5.2704

> <r_epik_Ionization_Penalty_Charging>
  0.0000

> <r_epik_Ionization_Penalty_Neutral>
  5.2704

> <r_epik_State_Penalty>
  5.2704

> <i_epik_Tot_Q>
-1

> <r_epik_Metal_State_Penalty>
  1.2537

> <b_epik_Metal_Only>
1

> <s_m_entry_id>
4854

> <s_canvas_Unique_SMILES_Stereo>
c1cccc(c12)nccc2[O-]

$$$$
Schrodinger_fragment_332
                    3D
 Structure written by MMmdl.
 21 22  0  0  1  0            999 V2000
    2.5014   -2.2138    0.0204 C   0  0  0  0  0  0
    2.4743   -3.6394    0.0258 C   0  0  0  0  0  0
    3.7085   -4.3374    0.0294 C   0  0  0  0  0  0
    4.9335   -3.6435    0.0277 C   0  0  0  0  0  0
    4.9499   -2.2383    0.0224 C   0  0  0  0  0  0
    3.7371   -1.5263    0.0188 C   0  0  0  0  0  0
    1.2254   -1.4381    0.0165 C   0  0  0  0  0  0
   -0.0020   -2.2467    0.0186 C   0  0  0  0  0  0
    0.0830   -3.5892    0.0238 C   0  0  0  0  0  0
    1.2802   -4.3022    0.0274 N   0  0  0  0  0  0
    1.1881   -0.2025    0.0118 O   0  0  0  0  0  0
    1.2120   -5.7642    0.0329 C   0  0  0  0  0  0
    3.7461   -5.4167    0.0335 H   0  0  0  0  0  0
    5.8640   -4.1941    0.0305 H   0  0  0  0  0  0
    5.8919   -1.7064    0.0211 H   0  0  0  0  0  0
    3.7597   -0.4450    0.0147 H   0  0  0  0  0  0
   -0.9558   -1.7402    0.0160 H   0  0  0  0  0  0
   -0.8130   -4.1960    0.0254 H   0  0  0  0  0  0
    0.1854   -6.1326    0.0335 H   0  0  0  0  0  0
    1.7015   -6.1704    0.9191 H   0  0  0  0  0  0
    1.7029   -6.1771   -0.8494 H   0  0  0  0  0  0
  1  2  2  0  0  0
  1  6  1  0  0  0
  1  7  1  0  0  0
  2  3  1  0  0  0
  2 10  1  0  0  0
  3  4  2  0  0  0
  3 13  1  0  0  0
  4  5  1  0  0  0
  4 14  1  0  0  0
  5  6  2  0  0  0
  5 15  1  0  0  0
  6 16  1  0  0  0
  7  8  1  0  0  0
  7 11  2  0  0  0
  8  9  2  0  0  0
  8 17  1  0  0  0
  9 10  1  0  0  0
  9 18  1  0  0  0
 10 12  1  0  0  0
 12 19  1  0  0  0
 12 20  1  0  0  0
 12 21  1  0  0  0
M  END
> <s_m_entry_name>
Schrodinger_fragment_417

> <i_m_number_of_atoms>
21

> <r_m_molecular_weight>
159.18933

> <s_m_molecular_formula>
C10H9N1O1

> <r_epik_Ionization_Penalty>
  0.0003

> <r_epik_Ionization_Penalty_Charging>
  0.0003

> <r_epik_Ionization_Penalty_Neutral>
  0.0000

> <r_epik_State_Penalty>
  0.0000

> <i_epik_Tot_Q>
0

> <r_epik_Metal_State_Penalty>
  0.0000

> <b_epik_Metal_Only>
0

> <s_m_entry_id>
4855

> <s_canvas_Unique_SMILES_Stereo>
O=c1ccn(C)c(c12)cccc2

$$$$
Schrodinger_fragment_333
                    3D
 Structure written by MMmdl.
 18 19  0  0  1  0            999 V2000
    2.4686    2.1528    0.0217 C   0  0  0  0  0  0
    2.4698    0.7348    0.0260 C   0  0  0  0  0  0
    3.6886    0.0261    0.0315 C   0  0  0  0  0  0
    4.9102    0.7267    0.0327 C   0  0  0  0  0  0
    4.9164    2.1349    0.0285 C   0  0  0  0  0  0
    3.7000    2.8463    0.0230 C   0  0  0  0  0  0
    1.1545    2.9023    0.0158 C   0  0  0  0  0  0
    0.0382    2.1496    0.0151 N   0  0  0  0  0  0
    0.0379    0.7487    0.0193 C   0  0  0  0  0  0
    1.1795    0.0368    0.0246 C   0  0  0  0  0  0
    1.1165    4.1354    0.0119 O   0  0  0  0  0  0
    3.6915   -1.0554    0.0349 H   0  0  0  0  0  0
    5.8446    0.1822    0.0370 H   0  0  0  0  0  0
    5.8558    2.6710    0.0294 H   0  0  0  0  0  0
    3.7152    3.9278    0.0197 H   0  0  0  0  0  0
   -0.8558    2.6212    0.0112 H   0  0  0  0  0  0
   -0.9482    0.3048    0.0180 H   0  0  0  0  0  0
    1.1682   -1.0451    0.0279 H   0  0  0  0  0  0
  1  2  2  0  0  0
  1  6  1  0  0  0
  1  7  1  0  0  0
  2  3  1  0  0  0
  2 10  1  0  0  0
  3  4  2  0  0  0
  3 12  1  0  0  0
  4  5  1  0  0  0
  4 13  1  0  0  0
  5  6  2  0  0  0
  5 14  1  0  0  0
  6 15  1  0  0  0
  7  8  1  0  0  0
  7 11  2  0  0  0
  8  9  1  0  0  0
  8 16  1  0  0  0
  9 10  2  0  0  0
  9 17  1  0  0  0
 10 18  1  0  0  0
M  END
> <s_m_entry_name>
Schrodinger_fragment_418

> <i_m_number_of_atoms>
18

> <r_m_molecular_weight>
145.16224

> <s_m_molecular_formula>
C9H7N1O1

> <r_epik_Ionization_Penalty>
  0.0000

> <r_epik_Ionization_Penalty_Charging>
  0.0000

> <r_epik_Ionization_Penalty_Neutral>
  0.0000

> <r_epik_State_Penalty>
  0.0000

> <i_epik_Tot_Q>
0

> <r_epik_Metal_State_Penalty>
  0.0213

> <b_epik_Metal_Only>
0

> <s_m_entry_id>
4856

> <s_canvas_Unique_SMILES_Stereo>
c1cccc(c12)cc[nH]c2=O

$$$$
Schrodinger_fragment_333_a
                    3D
 Structure written by MMmdl.
 17 18  0  0  1  0            999 V2000
    2.4656    2.1471    0.0217 C   0  0  0  0  0  0
    2.4619    0.7325    0.0260 C   0  0  0  0  0  0
    3.6797    0.0226    0.0315 C   0  0  0  0  0  0
    4.9044    0.7209    0.0327 C   0  0  0  0  0  0
    4.9115    2.1299    0.0285 C   0  0  0  0  0  0
    3.6959    2.8441    0.0229 C   0  0  0  0  0  0
    1.2182    2.8026    0.0163 C   0  0  0  0  0  0
    0.0438    2.1562    0.0151 N   0  0  0  0  0  0
    0.0458    0.8030    0.0192 C   0  0  0  0  0  0
    1.2305    0.0589    0.0247 C   0  0  0  0  0  0
    1.0834    4.1566    0.0118 O   0  5  0  0  0  0
    3.6792   -1.0586    0.0348 H   0  0  0  0  0  0
    5.8397    0.1769    0.0370 H   0  0  0  0  0  0
    5.8538    2.6642    0.0294 H   0  0  0  0  0  0
    3.7096    3.9255    0.0197 H   0  0  0  0  0  0
   -0.9161    0.3090    0.0181 H   0  0  0  0  0  0
    1.1908   -1.0230    0.0279 H   0  0  0  0  0  0
  1  2  2  0  0  0
  1  6  1  0  0  0
  1  7  1  0  0  0
  2  3  1  0  0  0
  2 10  1  0  0  0
  3  4  2  0  0  0
  3 12  1  0  0  0
  4  5  1  0  0  0
  4 13  1  0  0  0
  5  6  2  0  0  0
  5 14  1  0  0  0
  6 15  1  0  0  0
  7  8  2  0  0  0
  7 11  1  0  0  0
  8  9  1  0  0  0
  9 10  2  0  0  0
  9 16  1  0  0  0
 10 17  1  0  0  0
M  CHG  1  11  -1
M  END
> <s_m_entry_name>
Schrodinger_fragment_418

> <i_m_number_of_atoms>
18

> <r_m_molecular_weight>
145.16224

> <s_m_molecular_formula>
C9H7N1O1

> <r_epik_Ionization_Penalty>
  6.0955

> <r_epik_Ionization_Penalty_Charging>
  0.0429

> <r_epik_Ionization_Penalty_Neutral>
  6.0526

> <r_epik_State_Penalty>
  6.0526

> <i_epik_Tot_Q>
-1

> <r_epik_Metal_State_Penalty>
  1.9812

> <b_epik_Metal_Only>
1

> <s_m_entry_id>
4857

> <s_canvas_Unique_SMILES_Stereo>
c1cccc(c12)ccnc2[O-]

$$$$
Schrodinger_fragment_334
                    3D
 Structure written by MMmdl.
 21 22  0  0  1  0            999 V2000
    3.0352   -2.2127    0.0230 C   0  0  0  0  0  0
    3.0294   -3.6286    0.0274 C   0  0  0  0  0  0
    4.2428   -4.3463    0.0288 C   0  0  0  0  0  0
    5.4693   -3.6548    0.0259 C   0  0  0  0  0  0
    5.4845   -2.2468    0.0215 C   0  0  0  0  0  0
    4.2725   -1.5279    0.0201 C   0  0  0  0  0  0
    1.7260   -1.4521    0.0215 C   0  0  0  0  0  0
    0.5828   -2.1924    0.0244 N   0  0  0  0  0  0
    0.5997   -3.6009    0.0288 C   0  0  0  0  0  0
    1.7382   -4.3163    0.0303 C   0  0  0  0  0  0
    1.7291   -0.2141    0.0178 O   0  0  0  0  0  0
   -0.7189   -1.5213    0.0230 C   0  0  0  0  0  0
    4.2378   -5.4278    0.0321 H   0  0  0  0  0  0
    6.3999   -4.2057    0.0269 H   0  0  0  0  0  0
    6.4273   -1.7167    0.0193 H   0  0  0  0  0  0
    4.2972   -0.4466    0.0168 H   0  0  0  0  0  0
   -0.3746   -4.0686    0.0308 H   0  0  0  0  0  0
    1.7221   -5.3982    0.0338 H   0  0  0  0  0  0
   -1.5558   -2.2196    0.0254 H   0  0  0  0  0  0
   -0.8212   -0.8909   -0.8613 H   0  0  0  0  0  0
   -0.8205   -0.8857    0.9037 H   0  0  0  0  0  0
  1  2  2  0  0  0
  1  6  1  0  0  0
  1  7  1  0  0  0
  2  3  1  0  0  0
  2 10  1  0  0  0
  3  4  2  0  0  0
  3 13  1  0  0  0
  4  5  1  0  0  0
  4 14  1  0  0  0
  5  6  2  0  0  0
  5 15  1  0  0  0
  6 16  1  0  0  0
  7  8  1  0  0  0
  7 11  2  0  0  0
  8  9  1  0  0  0
  8 12  1  0  0  0
  9 10  2  0  0  0
  9 17  1  0  0  0
 10 18  1  0  0  0
 12 19  1  0  0  0
 12 20  1  0  0  0
 12 21  1  0  0  0
M  END
> <s_m_entry_name>
Schrodinger_fragment_419

> <i_m_number_of_atoms>
21

> <r_m_molecular_weight>
159.18933

> <s_m_molecular_formula>
C10H9N1O1

> <r_epik_Ionization_Penalty>
  0.0000

> <r_epik_Ionization_Penalty_Charging>
  0.0000

> <r_epik_Ionization_Penalty_Neutral>
  0.0000

> <r_epik_State_Penalty>
  0.0000

> <i_epik_Tot_Q>
0

> <r_epik_Metal_State_Penalty>
  0.0000

> <b_epik_Metal_Only>
0

> <s_m_entry_id>
4858

> <s_canvas_Unique_SMILES_Stereo>
O=c1n(C)ccc(c12)cccc2

$$$$
Schrodinger_fragment_335
                    3D
 Structure written by MMmdl.
 20 21  0  0  1  0            999 V2000
    0.0579    2.2044   -0.0705 N   0  0  0  0  0  0
    0.0055    0.7684   -0.3489 C   0  0  0  0  0  0
    1.1692   -0.0024    0.3029 C   0  0  0  0  0  0
    2.4851    0.7422    0.1549 C   0  0  0  0  0  0
    2.4786    2.1548    0.0465 C   0  0  0  0  0  0
    1.1788    2.9179    0.0987 C   0  0  0  0  0  0
    3.7036    0.0321    0.1254 C   0  0  0  0  0  0
    4.9206    0.7261   -0.0126 C   0  0  0  0  0  0
    4.9225    2.1298   -0.1191 C   0  0  0  0  0  0
    3.7068    2.8412   -0.0874 C   0  0  0  0  0  0
    1.1538    4.1373    0.2707 O   0  0  0  0  0  0
   -0.8208    2.7033   -0.0385 H   0  0  0  0  0  0
   -0.9529    0.3567   -0.0310 H   0  0  0  0  0  0
    0.0537    0.6443   -1.4317 H   0  0  0  0  0  0
    0.9736   -0.1374    1.3675 H   0  0  0  0  0  0
    1.2447   -1.0012   -0.1297 H   0  0  0  0  0  0
    3.7101   -1.0465    0.2086 H   0  0  0  0  0  0
    5.8543    0.1808   -0.0356 H   0  0  0  0  0  0
    5.8580    2.6626   -0.2233 H   0  0  0  0  0  0
    3.7202    3.9199   -0.1664 H   0  0  0  0  0  0
  1  2  1  0  0  0
  1  6  1  0  0  0
  1 12  1  0  0  0
  2  3  1  0  0  0
  2 13  1  0  0  0
  2 14  1  0  0  0
  3  4  1  0  0  0
  3 15  1  0  0  0
  3 16  1  0  0  0
  4  5  2  0  0  0
  4  7  1  0  0  0
  5  6  1  0  0  0
  5 10  1  0  0  0
  6 11  2  0  0  0
  7  8  2  0  0  0
  7 17  1  0  0  0
  8  9  1  0  0  0
  8 18  1  0  0  0
  9 10  2  0  0  0
  9 19  1  0  0  0
 10 20  1  0  0  0
M  END
> <s_m_entry_name>
Schrodinger_fragment_420

> <i_m_number_of_atoms>
20

> <r_m_molecular_weight>
147.17818

> <s_m_molecular_formula>
C9H9N1O1

> <r_epik_Ionization_Penalty>
  0.0000

> <r_epik_Ionization_Penalty_Charging>
  0.0000

> <r_epik_Ionization_Penalty_Neutral>
  0.0000

> <r_epik_State_Penalty>
  0.0000

> <i_epik_Tot_Q>
0

> <r_epik_Metal_State_Penalty>
  0.0100

> <b_epik_Metal_Only>
0

> <s_m_entry_id>
4859

> <s_canvas_Unique_SMILES_Stereo>
c1cccc(c12)CCNC2=O

$$$$
Schrodinger_fragment_335_a
                    3D
 Structure written by MMmdl.
 19 20  0  0  1  0            999 V2000
    0.0155    2.2194   -0.0425 N   0  0  0  0  0  0
    0.0441    0.7912   -0.3879 C   0  0  0  0  0  0
    1.1666    0.0129    0.3363 C   0  0  0  0  0  0
    2.4871    0.7415    0.1743 C   0  0  0  0  0  0
    2.4570    2.1536    0.0596 C   0  0  0  0  0  0
    1.1143    2.8378    0.1087 C   0  0  0  0  0  0
    3.7054    0.0310    0.1395 C   0  0  0  0  0  0
    4.9177    0.7269   -0.0201 C   0  0  0  0  0  0
    4.9097    2.1284   -0.1459 C   0  0  0  0  0  0
    3.6908    2.8355   -0.1077 C   0  0  0  0  0  0
    1.2335    4.0404    0.3599 O   0  5  0  0  0  0
   -0.9173    0.3300   -0.1549 H   0  0  0  0  0  0
    0.1714    0.6836   -1.4676 H   0  0  0  0  0  0
    0.9456   -0.0860    1.4005 H   0  0  0  0  0  0
    1.2409   -0.9994   -0.0650 H   0  0  0  0  0  0
    3.7135   -1.0466    0.2326 H   0  0  0  0  0  0
    5.8536    0.1854   -0.0487 H   0  0  0  0  0  0
    5.8403    2.6645   -0.2725 H   0  0  0  0  0  0
    3.7099    3.9113   -0.2102 H   0  0  0  0  0  0
  1  2  1  0  0  0
  1  6  2  0  0  0
  2  3  1  0  0  0
  2 12  1  0  0  0
  2 13  1  0  0  0
  3  4  1  0  0  0
  3 14  1  0  0  0
  3 15  1  0  0  0
  4  5  2  0  0  0
  4  7  1  0  0  0
  5  6  1  0  0  0
  5 10  1  0  0  0
  6 11  1  0  0  0
  7  8  2  0  0  0
  7 16  1  0  0  0
  8  9  1  0  0  0
  8 17  1  0  0  0
  9 10  2  0  0  0
  9 18  1  0  0  0
 10 19  1  0  0  0
M  CHG  1  11  -1
M  END
> <s_m_entry_name>
Schrodinger_fragment_420

> <i_m_number_of_atoms>
20

> <r_m_molecular_weight>
147.17818

> <s_m_molecular_formula>
C9H9N1O1

> <r_epik_Ionization_Penalty>
  6.5045

> <r_epik_Ionization_Penalty_Charging>
  6.5045

> <r_epik_Ionization_Penalty_Neutral>
  0.0000

> <r_epik_State_Penalty>
  6.5045

> <i_epik_Tot_Q>
-1

> <r_epik_Metal_State_Penalty>
  2.4217

> <b_epik_Metal_Only>
1

> <s_m_entry_id>
4860

> <s_canvas_Unique_SMILES_Stereo>
c1cccc(c12)CCN=C2[O-]

$$$$
Schrodinger_fragment_336
                    3D
 Structure written by MMmdl.
 23 24  0  0  1  0            999 V2000
    0.5973   -2.1518   -0.0517 N   0  0  0  0  0  0
    0.5836   -3.5672   -0.4537 C   0  0  0  0  0  0
    1.7187   -4.3859    0.1857 C   0  0  0  0  0  0
    3.0367   -3.6413    0.1182 C   0  0  0  0  0  0
    3.0323   -2.2262    0.1214 C   0  0  0  0  0  0
    1.7326   -1.4651    0.2226 C   0  0  0  0  0  0
    4.2532   -4.3515    0.0476 C   0  0  0  0  0  0
    5.4733   -3.6528   -0.0203 C   0  0  0  0  0  0
    5.4791   -2.2452   -0.0157 C   0  0  0  0  0  0
    4.2644   -1.5353    0.0575 C   0  0  0  0  0  0
    1.7371   -0.2660    0.5233 O   0  0  0  0  0  0
   -0.7088   -1.4906    0.0009 C   0  0  0  0  0  0
   -0.3722   -4.0386   -0.2218 H   0  0  0  0  0  0
    0.6885   -3.5961   -1.5392 H   0  0  0  0  0  0
    1.4906   -4.5833    1.2341 H   0  0  0  0  0  0
    1.8031   -5.3565   -0.3054 H   0  0  0  0  0  0
    4.2557   -5.4334    0.0446 H   0  0  0  0  0  0
    6.4061   -4.1975   -0.0751 H   0  0  0  0  0  0
    6.4168   -1.7085   -0.0659 H   0  0  0  0  0  0
    4.2826   -0.4536    0.0648 H   0  0  0  0  0  0
   -0.6904   -0.5426   -0.5393 H   0  0  0  0  0  0
   -0.9858   -1.2845    1.0355 H   0  0  0  0  0  0
   -1.4989   -2.0960   -0.4439 H   0  0  0  0  0  0
  1  2  1  0  0  0
  1  6  1  0  0  0
  1 12  1  0  0  0
  2  3  1  0  0  0
  2 13  1  0  0  0
  2 14  1  0  0  0
  3  4  1  0  0  0
  3 15  1  0  0  0
  3 16  1  0  0  0
  4  5  2  0  0  0
  4  7  1  0  0  0
  5  6  1  0  0  0
  5 10  1  0  0  0
  6 11  2  0  0  0
  7  8  2  0  0  0
  7 17  1  0  0  0
  8  9  1  0  0  0
  8 18  1  0  0  0
  9 10  2  0  0  0
  9 19  1  0  0  0
 10 20  1  0  0  0
 12 21  1  0  0  0
 12 22  1  0  0  0
 12 23  1  0  0  0
M  END
> <s_m_entry_name>
Schrodinger_fragment_421

> <i_m_number_of_atoms>
23

> <r_m_molecular_weight>
161.20527

> <s_m_molecular_formula>
C10H11N1O1

> <r_epik_Ionization_Penalty>
  0.0000

> <r_epik_Ionization_Penalty_Charging>
  0.0000

> <r_epik_Ionization_Penalty_Neutral>
  0.0000

> <r_epik_State_Penalty>
  0.0000

> <i_epik_Tot_Q>
0

> <r_epik_Metal_State_Penalty>
  0.0000

> <b_epik_Metal_Only>
0

> <s_m_entry_id>
4861

> <s_canvas_Unique_SMILES_Stereo>
O=C1N(C)CCc(c12)cccc2

$$$$
Schrodinger_fragment_337
                    3D
 Structure written by MMmdl.
 20 21  0  0  1  0            999 V2000
    3.6801    2.1448    0.1334 C   0  0  0  0  0  0
    3.6502    0.7324    0.0859 C   0  0  0  0  0  0
    4.8543    0.0052   -0.0027 C   0  0  0  0  0  0
    6.0843    0.6902   -0.0590 C   0  0  0  0  0  0
    6.1131    2.0988   -0.0206 C   0  0  0  0  0  0
    4.9116    2.8278    0.0787 C   0  0  0  0  0  0
    2.3692    2.8975    0.2778 C   0  0  0  0  0  0
    1.1990    2.1311   -0.3678 C   0  0  0  0  0  0
    1.2158    0.6375   -0.0176 C   0  0  0  0  0  0
    2.4107    0.0483    0.1409 N   0  0  0  0  0  0
    0.1603    0.0103    0.0826 O   0  0  0  0  0  0
    4.8440   -1.0757   -0.0340 H   0  0  0  0  0  0
    7.0083    0.1332   -0.1313 H   0  0  0  0  0  0
    7.0595    2.6208   -0.0621 H   0  0  0  0  0  0
    4.9404    3.9082    0.1190 H   0  0  0  0  0  0
    2.1735    3.0496    1.3399 H   0  0  0  0  0  0
    2.4574    3.8867   -0.1722 H   0  0  0  0  0  0
    0.2466    2.5778   -0.0811 H   0  0  0  0  0  0
    1.2681    2.2085   -1.4532 H   0  0  0  0  0  0
    2.4278   -0.9502    0.2963 H   0  0  0  0  0  0
  1  2  2  0  0  0
  1  6  1  0  0  0
  1  7  1  0  0  0
  2  3  1  0  0  0
  2 10  1  0  0  0
  3  4  2  0  0  0
  3 12  1  0  0  0
  4  5  1  0  0  0
  4 13  1  0  0  0
  5  6  2  0  0  0
  5 14  1  0  0  0
  6 15  1  0  0  0
  7  8  1  0  0  0
  7 16  1  0  0  0
  7 17  1  0  0  0
  8  9  1  0  0  0
  8 18  1  0  0  0
  8 19  1  0  0  0
  9 10  1  0  0  0
  9 11  2  0  0  0
 10 20  1  0  0  0
M  END
> <s_m_entry_name>
Schrodinger_fragment_422

> <i_m_number_of_atoms>
20

> <r_m_molecular_weight>
147.17818

> <s_m_molecular_formula>
C9H9N1O1

> <r_epik_Ionization_Penalty>
  0.0000

> <r_epik_Ionization_Penalty_Charging>
  0.0000

> <r_epik_Ionization_Penalty_Neutral>
  0.0000

> <r_epik_State_Penalty>
  0.0000

> <i_epik_Tot_Q>
0

> <r_epik_Metal_State_Penalty>
  0.0000

> <b_epik_Metal_Only>
0

> <s_m_entry_id>
4862

> <s_canvas_Unique_SMILES_Stereo>
C1CC(=O)Nc(c12)cccc2

$$$$
Schrodinger_fragment_338
                    3D
 Structure written by MMmdl.
 23 24  0  0  1  0            999 V2000
    3.8724   -0.7011    0.1813 C   0  0  0  0  0  0
    3.8470   -2.1114    0.0426 C   0  0  0  0  0  0
    5.0770   -2.7993   -0.1047 C   0  0  0  0  0  0
    6.2965   -2.0944   -0.1097 C   0  0  0  0  0  0
    6.3060   -0.6948    0.0331 C   0  0  0  0  0  0
    5.0934    0.0030    0.1788 C   0  0  0  0  0  0
    2.5612    0.0382    0.3418 C   0  0  0  0  0  0
    1.4516   -0.6656   -0.4483 C   0  0  0  0  0  0
    1.4118   -2.1703   -0.1577 C   0  0  0  0  0  0
    2.5911   -2.8141    0.0563 N   0  0  0  0  0  0
    0.3126   -2.7369   -0.1593 O   0  0  0  0  0  0
    2.5907   -4.2686    0.2706 C   0  0  0  0  0  0
    5.1097   -3.8727   -0.2260 H   0  0  0  0  0  0
    7.2284   -2.6309   -0.2249 H   0  0  0  0  0  0
    7.2439   -0.1562    0.0299 H   0  0  0  0  0  0
    5.1051    1.0790    0.2890 H   0  0  0  0  0  0
    2.3057    0.0795    1.4015 H   0  0  0  0  0  0
    2.6653    1.0683   -0.0008 H   0  0  0  0  0  0
    0.4847   -0.2135   -0.2267 H   0  0  0  0  0  0
    1.6224   -0.5406   -1.5177 H   0  0  0  0  0  0
    1.6278   -4.6628    0.5979 H   0  0  0  0  0  0
    3.3052   -4.5464    1.0456 H   0  0  0  0  0  0
    2.8628   -4.7842   -0.6506 H   0  0  0  0  0  0
  1  2  2  0  0  0
  1  6  1  0  0  0
  1  7  1  0  0  0
  2  3  1  0  0  0
  2 10  1  0  0  0
  3  4  2  0  0  0
  3 13  1  0  0  0
  4  5  1  0  0  0
  4 14  1  0  0  0
  5  6  2  0  0  0
  5 15  1  0  0  0
  6 16  1  0  0  0
  7  8  1  0  0  0
  7 17  1  0  0  0
  7 18  1  0  0  0
  8  9  1  0  0  0
  8 19  1  0  0  0
  8 20  1  0  0  0
  9 10  1  0  0  0
  9 11  2  0  0  0
 10 12  1  0  0  0
 12 21  1  0  0  0
 12 22  1  0  0  0
 12 23  1  0  0  0
M  END
> <s_m_entry_name>
Schrodinger_fragment_423

> <i_m_number_of_atoms>
23

> <r_m_molecular_weight>
161.20527

> <s_m_molecular_formula>
C10H11N1O1

> <r_epik_Ionization_Penalty>
  0.0000

> <r_epik_Ionization_Penalty_Charging>
  0.0000

> <r_epik_Ionization_Penalty_Neutral>
  0.0000

> <r_epik_State_Penalty>
  0.0000

> <i_epik_Tot_Q>
0

> <r_epik_Metal_State_Penalty>
  0.0000

> <b_epik_Metal_Only>
0

> <s_m_entry_id>
4863

> <s_canvas_Unique_SMILES_Stereo>
C1CC(=O)N(C)c(c12)cccc2

$$$$
Schrodinger_fragment_339
                    3D
 Structure written by MMmdl.
 20 21  0  0  1  0            999 V2000
    1.1138    2.1266   -0.1553 C   0  0  0  0  0  0
    1.1723    0.7915   -0.1051 N   0  0  0  0  0  0
    2.3734   -0.0322   -0.0325 C   0  0  0  0  0  0
    3.6842    0.7364   -0.0133 C   0  0  0  0  0  0
    3.6970    2.1488   -0.0638 C   0  0  0  0  0  0
    2.4067    2.9572   -0.1390 C   0  0  0  0  0  0
    4.8999    0.0247    0.0557 C   0  0  0  0  0  0
    6.1270    0.7146    0.0748 C   0  0  0  0  0  0
    6.1420    2.1208    0.0246 C   0  0  0  0  0  0
    4.9306    2.8348   -0.0444 C   0  0  0  0  0  0
    0.0260    2.7011   -0.2149 O   0  0  0  0  0  0
    0.2932    0.2928   -0.1186 H   0  0  0  0  0  0
    2.3152   -0.6512    0.8638 H   0  0  0  0  0  0
    2.3777   -0.7142   -0.8839 H   0  0  0  0  0  0
    2.4303    3.5749   -1.0372 H   0  0  0  0  0  0
    2.3678    3.6380    0.7118 H   0  0  0  0  0  0
    4.8944   -1.0563    0.0945 H   0  0  0  0  0  0
    7.0568    0.1647    0.1278 H   0  0  0  0  0  0
    7.0836    2.6528    0.0391 H   0  0  0  0  0  0
    4.9519    3.9158   -0.0826 H   0  0  0  0  0  0
  1  2  1  0  0  0
  1  6  1  0  0  0
  1 11  2  0  0  0
  2  3  1  0  0  0
  2 12  1  0  0  0
  3  4  1  0  0  0
  3 13  1  0  0  0
  3 14  1  0  0  0
  4  5  2  0  0  0
  4  7  1  0  0  0
  5  6  1  0  0  0
  5 10  1  0  0  0
  6 15  1  0  0  0
  6 16  1  0  0  0
  7  8  2  0  0  0
  7 17  1  0  0  0
  8  9  1  0  0  0
  8 18  1  0  0  0
  9 10  2  0  0  0
  9 19  1  0  0  0
 10 20  1  0  0  0
M  END
> <s_m_entry_name>
Schrodinger_fragment_424

> <i_m_number_of_atoms>
20

> <r_m_molecular_weight>
147.17818

> <s_m_molecular_formula>
C9H9N1O1

> <r_epik_Ionization_Penalty>
  0.0000

> <r_epik_Ionization_Penalty_Charging>
  0.0000

> <r_epik_Ionization_Penalty_Neutral>
  0.0000

> <r_epik_State_Penalty>
  0.0000

> <i_epik_Tot_Q>
0

> <r_epik_Metal_State_Penalty>
  0.0000

> <b_epik_Metal_Only>
0

> <s_m_entry_id>
4864

> <s_canvas_Unique_SMILES_Stereo>
C1C(=O)NCc(c12)cccc2

$$$$
Schrodinger_fragment_340
                    3D
 Structure written by MMmdl.
 23 24  0  0  1  0            999 V2000
    1.3302   -0.8306    0.0154 C   0  0  0  0  0  0
    1.3684   -2.1820   -0.0028 N   0  0  0  0  0  0
    2.5907   -2.9886   -0.0827 C   0  0  0  0  0  0
    3.9013   -2.2250   -0.0330 C   0  0  0  0  0  0
    3.9131   -0.8152   -0.0643 C   0  0  0  0  0  0
    2.6216   -0.0188   -0.1712 C   0  0  0  0  0  0
    5.1160   -2.9373    0.0476 C   0  0  0  0  0  0
    6.3412   -2.2460    0.1003 C   0  0  0  0  0  0
    6.3549   -0.8390    0.0709 C   0  0  0  0  0  0
    5.1437   -0.1261   -0.0127 C   0  0  0  0  0  0
    0.2693   -0.2101    0.1505 O   0  0  0  0  0  0
    0.1316   -2.9604    0.1032 C   0  0  0  0  0  0
    2.5887   -3.7098    0.7363 H   0  0  0  0  0  0
    2.5671   -3.5645   -1.0090 H   0  0  0  0  0  0
    2.5856    0.4602   -1.1497 H   0  0  0  0  0  0
    2.6362    0.7791    0.5718 H   0  0  0  0  0  0
    5.1119   -4.0189    0.0711 H   0  0  0  0  0  0
    7.2708   -2.7954    0.1632 H   0  0  0  0  0  0
    7.2951   -0.3059    0.1103 H   0  0  0  0  0  0
    5.1635    0.9553   -0.0395 H   0  0  0  0  0  0
    0.3083   -4.0314   -0.0034 H   0  0  0  0  0  0
   -0.5775   -2.6689   -0.6730 H   0  0  0  0  0  0
   -0.3405   -2.7975    1.0730 H   0  0  0  0  0  0
  1  2  1  0  0  0
  1  6  1  0  0  0
  1 11  2  0  0  0
  2  3  1  0  0  0
  2 12  1  0  0  0
  3  4  1  0  0  0
  3 13  1  0  0  0
  3 14  1  0  0  0
  4  5  2  0  0  0
  4  7  1  0  0  0
  5  6  1  0  0  0
  5 10  1  0  0  0
  6 15  1  0  0  0
  6 16  1  0  0  0
  7  8  2  0  0  0
  7 17  1  0  0  0
  8  9  1  0  0  0
  8 18  1  0  0  0
  9 10  2  0  0  0
  9 19  1  0  0  0
 10 20  1  0  0  0
 12 21  1  0  0  0
 12 22  1  0  0  0
 12 23  1  0  0  0
M  END
> <s_m_entry_name>
Schrodinger_fragment_425

> <i_m_number_of_atoms>
23

> <r_m_molecular_weight>
161.20527

> <s_m_molecular_formula>
C10H11N1O1

> <r_epik_Ionization_Penalty>
  0.0000

> <r_epik_Ionization_Penalty_Charging>
  0.0000

> <r_epik_Ionization_Penalty_Neutral>
  0.0000

> <r_epik_State_Penalty>
  0.0000

> <i_epik_Tot_Q>
0

> <r_epik_Metal_State_Penalty>
  0.0000

> <b_epik_Metal_Only>
0

> <s_m_entry_id>
4865

> <s_canvas_Unique_SMILES_Stereo>
C1C(=O)N(C)Cc(c12)cccc2

$$$$
Schrodinger_fragment_341
                    3D
 Structure written by MMmdl.
 20 21  0  0  1  0            999 V2000
    2.4868    2.1593    0.0095 C   0  0  0  0  0  0
    2.4597    0.7399   -0.0151 C   0  0  0  0  0  0
    3.6692    0.0148   -0.0280 C   0  0  0  0  0  0
    4.9031    0.6927   -0.0027 C   0  0  0  0  0  0
    4.9353    2.0991    0.0375 C   0  0  0  0  0  0
    3.7310    2.8296    0.0448 C   0  0  0  0  0  0
    1.2193    2.9455    0.0020 C   0  0  0  0  0  0
   -0.0601    2.1444   -0.2510 C   0  0  0  0  0  0
    0.0209    0.7115    0.3058 C   0  0  0  0  0  0
    1.2905    0.0715   -0.0137 N   0  0  0  0  0  0
    1.1596    4.1724    0.1456 O   0  0  0  0  0  0
    3.6647   -1.0664   -0.0505 H   0  0  0  0  0  0
    5.8268    0.1307   -0.0097 H   0  0  0  0  0  0
    5.8839    2.6185    0.0602 H   0  0  0  0  0  0
    3.7664    3.9102    0.0703 H   0  0  0  0  0  0
   -0.9133    2.6701    0.1777 H   0  0  0  0  0  0
   -0.2185    2.1130   -1.3288 H   0  0  0  0  0  0
   -0.1025    0.7293    1.3901 H   0  0  0  0  0  0
   -0.7986    0.1111   -0.0917 H   0  0  0  0  0  0
    1.3201   -0.9464    0.0344 H   0  0  0  0  0  0
  1  2  2  0  0  0
  1  6  1  0  0  0
  1  7  1  0  0  0
  2  3  1  0  0  0
  2 10  1  0  0  0
  3  4  2  0  0  0
  3 12  1  0  0  0
  4  5  1  0  0  0
  4 13  1  0  0  0
  5  6  2  0  0  0
  5 14  1  0  0  0
  6 15  1  0  0  0
  7  8  1  0  0  0
  7 11  2  0  0  0
  8  9  1  0  0  0
  8 16  1  0  0  0
  8 17  1  0  0  0
  9 10  1  0  0  0
  9 18  1  0  0  0
  9 19  1  0  0  0
 10 20  1  0  0  0
M  END
> <s_m_entry_name>
Schrodinger_fragment_426

> <i_m_number_of_atoms>
20

> <r_m_molecular_weight>
147.17818

> <s_m_molecular_formula>
C9H9N1O1

> <r_epik_Ionization_Penalty>
  0.0000

> <r_epik_Ionization_Penalty_Charging>
  0.0000

> <r_epik_Ionization_Penalty_Neutral>
  0.0000

> <r_epik_State_Penalty>
  0.0000

> <i_epik_Tot_Q>
0

> <r_epik_Metal_State_Penalty>
  0.0000

> <b_epik_Metal_Only>
0

> <s_m_entry_id>
4866

> <s_canvas_Unique_SMILES_Stereo>
c1cccc(c12)NCCC2=O

$$$$
Schrodinger_fragment_342
                    3D
 Structure written by MMmdl.
 23 24  0  0  1  0            999 V2000
    2.5167   -2.2278    0.0074 C   0  0  0  0  0  0
    2.4997   -3.6507    0.0505 C   0  0  0  0  0  0
    3.7351   -4.3443    0.0622 C   0  0  0  0  0  0
    4.9573   -3.6462    0.0473 C   0  0  0  0  0  0
    4.9669   -2.2413    0.0211 C   0  0  0  0  0  0
    3.7501   -1.5359    0.0021 C   0  0  0  0  0  0
    1.2496   -1.4456   -0.0371 C   0  0  0  0  0  0
   -0.0253   -2.2601   -0.2295 C   0  0  0  0  0  0
    0.0774   -3.6392    0.4347 C   0  0  0  0  0  0
    1.3216   -4.3300    0.0906 N   0  0  0  0  0  0
    1.1867   -0.2126    0.0351 O   0  0  0  0  0  0
    1.2180   -5.7843   -0.0306 C   0  0  0  0  0  0
    3.7731   -5.4235    0.0948 H   0  0  0  0  0  0
    5.8900   -4.1928    0.0613 H   0  0  0  0  0  0
    5.9062   -1.7047    0.0126 H   0  0  0  0  0  0
    3.7685   -0.4548   -0.0253 H   0  0  0  0  0  0
   -0.8761   -1.7088    0.1705 H   0  0  0  0  0  0
   -0.1928   -2.3726   -1.3004 H   0  0  0  0  0  0
    0.0282   -3.5271    1.5193 H   0  0  0  0  0  0
   -0.7926   -4.2316    0.1484 H   0  0  0  0  0  0
    0.1851   -6.1222   -0.1246 H   0  0  0  0  0  0
    1.6454   -6.2750    0.8453 H   0  0  0  0  0  0
    1.7528   -6.1384   -0.9133 H   0  0  0  0  0  0
  1  2  2  0  0  0
  1  6  1  0  0  0
  1  7  1  0  0  0
  2  3  1  0  0  0
  2 10  1  0  0  0
  3  4  2  0  0  0
  3 13  1  0  0  0
  4  5  1  0  0  0
  4 14  1  0  0  0
  5  6  2  0  0  0
  5 15  1  0  0  0
  6 16  1  0  0  0
  7  8  1  0  0  0
  7 11  2  0  0  0
  8  9  1  0  0  0
  8 17  1  0  0  0
  8 18  1  0  0  0
  9 10  1  0  0  0
  9 19  1  0  0  0
  9 20  1  0  0  0
 10 12  1  0  0  0
 12 21  1  0  0  0
 12 22  1  0  0  0
 12 23  1  0  0  0
M  END
> <s_m_entry_name>
Schrodinger_fragment_427

> <i_m_number_of_atoms>
23

> <r_m_molecular_weight>
161.20527

> <s_m_molecular_formula>
C10H11N1O1

> <r_epik_Ionization_Penalty>
  0.0000

> <r_epik_Ionization_Penalty_Charging>
  0.0000

> <r_epik_Ionization_Penalty_Neutral>
  0.0000

> <r_epik_State_Penalty>
  0.0000

> <i_epik_Tot_Q>
0

> <r_epik_Metal_State_Penalty>
  0.0000

> <b_epik_Metal_Only>
0

> <s_m_entry_id>
4867

> <s_canvas_Unique_SMILES_Stereo>
O=C1CCN(C)c(c12)cccc2

$$$$
Schrodinger_fragment_343
                    3D
 Structure written by MMmdl.
 18 19  0  0  1  0            999 V2000
    5.2651   -3.5066   -0.0337 C   0  0  0  0  0  0
    5.3013   -4.9208   -0.0595 C   0  0  0  0  0  0
    6.5393   -5.5992   -0.0014 C   0  0  0  0  0  0
    7.7381   -4.8678    0.1111 C   0  0  0  0  0  0
    7.7033   -3.4605    0.1529 C   0  0  0  0  0  0
    6.4711   -2.7812    0.0752 C   0  0  0  0  0  0
    3.9645   -2.8136   -0.1662 C   0  0  0  0  0  0
    2.8367   -3.4160   -0.1439 N   0  0  0  0  0  0
    2.7454   -4.8580    0.1893 C   0  0  0  0  0  0
    4.0187   -5.6608   -0.1919 C   0  0  0  0  0  0
    3.9343   -6.8471   -0.5240 O   0  0  0  0  0  0
    6.5717   -6.6800   -0.0363 H   0  0  0  0  0  0
    8.6856   -5.3870    0.1629 H   0  0  0  0  0  0
    8.6245   -2.8999    0.2362 H   0  0  0  0  0  0
    6.4564   -1.6998    0.0927 H   0  0  0  0  0  0
    4.0001   -1.7316   -0.3219 H   0  0  0  0  0  0
    2.5595   -4.9880    1.2557 H   0  0  0  0  0  0
    1.8982   -5.3033   -0.3326 H   0  0  0  0  0  0
  1  2  2  0  0  0
  1  6  1  0  0  0
  1  7  1  0  0  0
  2  3  1  0  0  0
  2 10  1  0  0  0
  3  4  2  0  0  0
  3 12  1  0  0  0
  4  5  1  0  0  0
  4 13  1  0  0  0
  5  6  2  0  0  0
  5 14  1  0  0  0
  6 15  1  0  0  0
  7  8  2  0  0  0
  7 16  1  0  0  0
  8  9  1  0  0  0
  9 10  1  0  0  0
  9 17  1  0  0  0
  9 18  1  0  0  0
 10 11  2  0  0  0
M  END
> <s_m_entry_name>
Schrodinger_fragment_430

> <i_m_number_of_atoms>
18

> <r_m_molecular_weight>
145.16224

> <s_m_molecular_formula>
C9H7N1O1

> <r_epik_Ionization_Penalty>
  0.1235

> <r_epik_Ionization_Penalty_Charging>
  0.0000

> <r_epik_Ionization_Penalty_Neutral>
  0.1235

> <r_epik_State_Penalty>
  0.1235

> <i_epik_Tot_Q>
0

> <r_epik_Metal_State_Penalty>
  0.1235

> <b_epik_Metal_Only>
0

> <s_m_entry_id>
4868

> <s_canvas_Unique_SMILES_Stereo>
c1cccc(c12)C=NCC2=O

$$$$
Schrodinger_fragment_343_a
                    3D
 Structure written by MMmdl.
 19 20  0  0  1  0            999 V2000
    5.2709   -3.4976   -0.0052 C   0  0  0  0  0  0
    5.2942   -4.9135    0.0161 C   0  0  0  0  0  0
    6.5388   -5.5879    0.0451 C   0  0  0  0  0  0
    7.7449   -4.8591    0.0532 C   0  0  0  0  0  0
    7.7163   -3.4518    0.0322 C   0  0  0  0  0  0
    6.4816   -2.7737    0.0030 C   0  0  0  0  0  0
    3.9962   -2.7673   -0.0360 C   0  0  0  0  0  0
    2.8681   -3.4141   -0.0427 N   0  3  0  0  0  0
    2.6982   -4.8974   -0.0208 C   0  0  0  0  0  0
    4.0232   -5.6888    0.0076 C   0  0  0  0  0  0
    3.9880   -6.9280    0.0228 O   0  0  0  0  0  0
    6.5740   -6.6686    0.0615 H   0  0  0  0  0  0
    8.6929   -5.3809    0.0755 H   0  0  0  0  0  0
    8.6399   -2.8903    0.0383 H   0  0  0  0  0  0
    6.4674   -1.6948   -0.0131 H   0  0  0  0  0  0
    4.0244   -1.6809   -0.0529 H   0  0  0  0  0  0
    2.1033   -5.1430    0.8588 H   0  0  0  0  0  0
    2.1245   -5.1714   -0.9062 H   0  0  0  0  0  0
    1.9864   -2.8984   -0.0641 H   0  0  0  0  0  0
  1  2  2  0  0  0
  1  6  1  0  0  0
  1  7  1  0  0  0
  2  3  1  0  0  0
  2 10  1  0  0  0
  3  4  2  0  0  0
  3 12  1  0  0  0
  4  5  1  0  0  0
  4 13  1  0  0  0
  5  6  2  0  0  0
  5 14  1  0  0  0
  6 15  1  0  0  0
  7  8  2  0  0  0
  7 16  1  0  0  0
  8  9  1  0  0  0
  8 19  1  0  0  0
  9 10  1  0  0  0
  9 17  1  0  0  0
  9 18  1  0  0  0
 10 11  2  0  0  0
M  CHG  1   8   1
M  END
> <s_m_entry_name>
Schrodinger_fragment_430

> <i_m_number_of_atoms>
18

> <r_m_molecular_weight>
145.16224

> <s_m_molecular_formula>
C9H7N1O1

> <r_epik_Ionization_Penalty>
  0.9898

> <r_epik_Ionization_Penalty_Charging>
  0.9898

> <r_epik_Ionization_Penalty_Neutral>
  0.0000

> <r_epik_State_Penalty>
  0.9898

> <i_epik_Tot_Q>
1

> <r_epik_Metal_State_Penalty>
  0.9898

> <b_epik_Metal_Only>
0

> <s_m_entry_id>
4869

> <s_canvas_Unique_SMILES_Stereo>
c1cccc(c12)C=[NH+]CC2=O

$$$$
Schrodinger_fragment_344
                    3D
 Structure written by MMmdl.
 18 19  0  0  1  0            999 V2000
    3.6861    2.1387    0.0130 C   0  0  0  0  0  0
    3.6706    0.7399    0.0912 C   0  0  0  0  0  0
    4.8786    0.0143    0.1005 C   0  0  0  0  0  0
    6.1043    0.7065    0.0222 C   0  0  0  0  0  0
    6.1199    2.1146   -0.0586 C   0  0  0  0  0  0
    4.9082    2.8354   -0.0586 C   0  0  0  0  0  0
    2.3554    2.8502    0.0641 C   0  0  0  0  0  0
    1.2469    2.0194   -0.2956 O   0  0  0  0  0  0
    1.1891    0.6722   -0.0781 C   0  0  0  0  0  0
    2.4254    0.0853    0.1641 N   0  0  0  0  0  0
    0.1314    0.0495   -0.1601 O   0  0  0  0  0  0
    4.8753   -1.0652    0.1627 H   0  0  0  0  0  0
    7.0348    0.1557    0.0257 H   0  0  0  0  0  0
    7.0624    2.6423   -0.1148 H   0  0  0  0  0  0
    4.9183    3.9154   -0.1084 H   0  0  0  0  0  0
    2.1998    3.2265    1.0752 H   0  0  0  0  0  0
    2.3804    3.7135   -0.6008 H   0  0  0  0  0  0
    2.4090   -0.9172    0.2945 H   0  0  0  0  0  0
  1  2  2  0  0  0
  1  6  1  0  0  0
  1  7  1  0  0  0
  2  3  1  0  0  0
  2 10  1  0  0  0
  3  4  2  0  0  0
  3 12  1  0  0  0
  4  5  1  0  0  0
  4 13  1  0  0  0
  5  6  2  0  0  0
  5 14  1  0  0  0
  6 15  1  0  0  0
  7  8  1  0  0  0
  7 16  1  0  0  0
  7 17  1  0  0  0
  8  9  1  0  0  0
  9 10  1  0  0  0
  9 11  2  0  0  0
 10 18  1  0  0  0
M  END
> <s_m_entry_name>
Schrodinger_fragment_431

> <i_m_number_of_atoms>
18

> <r_m_molecular_weight>
149.15049

> <s_m_molecular_formula>
C8H7N1O2

> <r_epik_Ionization_Penalty>
  0.0000

> <r_epik_Ionization_Penalty_Charging>
  0.0000

> <r_epik_Ionization_Penalty_Neutral>
  0.0000

> <r_epik_State_Penalty>
  0.0000

> <i_epik_Tot_Q>
0

> <r_epik_Metal_State_Penalty>
  0.0203

> <b_epik_Metal_Only>
0

> <s_m_entry_id>
4870

> <s_canvas_Unique_SMILES_Stereo>
C1OC(=O)Nc(c12)cccc2

$$$$
Schrodinger_fragment_344_a
                    3D
 Structure written by MMmdl.
 17 18  0  0  1  0            999 V2000
    3.6767    2.1403    0.0069 C   0  0  0  0  0  0
    3.6447    0.7363    0.0443 C   0  0  0  0  0  0
    4.8592    0.0194    0.0499 C   0  0  0  0  0  0
    6.0889    0.7087    0.0150 C   0  0  0  0  0  0
    6.1109    2.1176   -0.0211 C   0  0  0  0  0  0
    4.9004    2.8381   -0.0222 C   0  0  0  0  0  0
    2.3476    2.8535    0.0309 C   0  0  0  0  0  0
    1.2271    2.0067   -0.2702 O   0  0  0  0  0  0
    1.3181    0.6528   -0.0584 C   0  0  0  0  0  0
    2.4263    0.0514    0.0841 N   0  0  0  0  0  0
    0.1990    0.1367   -0.0557 O   0  5  0  0  0  0
    4.8574   -1.0618    0.0801 H   0  0  0  0  0  0
    7.0171    0.1541    0.0181 H   0  0  0  0  0  0
    7.0552    2.6445   -0.0451 H   0  0  0  0  0  0
    4.9111    3.9189   -0.0437 H   0  0  0  0  0  0
    2.2033    3.2890    1.0201 H   0  0  0  0  0  0
    2.3657    3.6779   -0.6825 H   0  0  0  0  0  0
  1  2  2  0  0  0
  1  6  1  0  0  0
  1  7  1  0  0  0
  2  3  1  0  0  0
  2 10  1  0  0  0
  3  4  2  0  0  0
  3 12  1  0  0  0
  4  5  1  0  0  0
  4 13  1  0  0  0
  5  6  2  0  0  0
  5 14  1  0  0  0
  6 15  1  0  0  0
  7  8  1  0  0  0
  7 16  1  0  0  0
  7 17  1  0  0  0
  8  9  1  0  0  0
  9 10  2  0  0  0
  9 11  1  0  0  0
M  CHG  1  11  -1
M  END
> <s_m_entry_name>
Schrodinger_fragment_431

> <i_m_number_of_atoms>
18

> <r_m_molecular_weight>
149.15049

> <s_m_molecular_formula>
C8H7N1O2

> <r_epik_Ionization_Penalty>
  6.0814

> <r_epik_Ionization_Penalty_Charging>
  6.0814

> <r_epik_Ionization_Penalty_Neutral>
  0.0000

> <r_epik_State_Penalty>
  6.0814

> <i_epik_Tot_Q>
-1

> <r_epik_Metal_State_Penalty>
  2.0090

> <b_epik_Metal_Only>
1

> <s_m_entry_id>
4871

> <s_canvas_Unique_SMILES_Stereo>
C1OC([O-])=Nc(c12)cccc2

$$$$
Schrodinger_fragment_345
                    3D
 Structure written by MMmdl.
 21 22  0  0  1  0            999 V2000
    3.8928   -0.7038    0.0241 C   0  0  0  0  0  0
    3.8790   -2.1084    0.0010 C   0  0  0  0  0  0
    5.1118   -2.8044   -0.0310 C   0  0  0  0  0  0
    6.3284   -2.0925   -0.0377 C   0  0  0  0  0  0
    6.3265   -0.6843   -0.0085 C   0  0  0  0  0  0
    5.1046    0.0142    0.0259 C   0  0  0  0  0  0
    2.5616   -0.0080    0.0939 C   0  0  0  0  0  0
    1.5188   -0.7821   -0.4885 O   0  0  0  0  0  0
    1.4146   -2.1341   -0.3482 C   0  0  0  0  0  0
    2.6161   -2.7800    0.0111 N   0  0  0  0  0  0
    0.3461   -2.7015   -0.5889 O   0  0  0  0  0  0
    2.5765   -4.2289    0.2460 C   0  0  0  0  0  0
    5.1478   -3.8838   -0.0603 H   0  0  0  0  0  0
    7.2663   -2.6300   -0.0650 H   0  0  0  0  0  0
    7.2617   -0.1408   -0.0101 H   0  0  0  0  0  0
    5.0987    1.0950    0.0553 H   0  0  0  0  0  0
    2.3203    0.1925    1.1381 H   0  0  0  0  0  0
    2.6209    0.9530   -0.4173 H   0  0  0  0  0  0
    1.5829   -4.5891    0.5182 H   0  0  0  0  0  0
    3.2351   -4.5094    1.0687 H   0  0  0  0  0  0
    2.8913   -4.7677   -0.6485 H   0  0  0  0  0  0
  1  2  2  0  0  0
  1  6  1  0  0  0
  1  7  1  0  0  0
  2  3  1  0  0  0
  2 10  1  0  0  0
  3  4  2  0  0  0
  3 13  1  0  0  0
  4  5  1  0  0  0
  4 14  1  0  0  0
  5  6  2  0  0  0
  5 15  1  0  0  0
  6 16  1  0  0  0
  7  8  1  0  0  0
  7 17  1  0  0  0
  7 18  1  0  0  0
  8  9  1  0  0  0
  9 10  1  0  0  0
  9 11  2  0  0  0
 10 12  1  0  0  0
 12 19  1  0  0  0
 12 20  1  0  0  0
 12 21  1  0  0  0
M  END
> <s_m_entry_name>
Schrodinger_fragment_432

> <i_m_number_of_atoms>
21

> <r_m_molecular_weight>
163.17758

> <s_m_molecular_formula>
C9H9N1O2

> <r_epik_Ionization_Penalty>
  0.0000

> <r_epik_Ionization_Penalty_Charging>
  0.0000

> <r_epik_Ionization_Penalty_Neutral>
  0.0000

> <r_epik_State_Penalty>
  0.0000

> <i_epik_Tot_Q>
0

> <r_epik_Metal_State_Penalty>
  0.0000

> <b_epik_Metal_Only>
0

> <s_m_entry_id>
4872

> <s_canvas_Unique_SMILES_Stereo>
C1OC(=O)N(C)c(c12)cccc2

$$$$
Schrodinger_fragment_346
                    3D
 Structure written by MMmdl.
 18 19  0  0  1  0            999 V2000
    3.6257    2.1227    0.1991 C   0  0  0  0  0  0
    3.6329    0.7136    0.0823 C   0  0  0  0  0  0
    4.8478    0.0173   -0.0751 C   0  0  0  0  0  0
    6.0606    0.7331   -0.1193 C   0  0  0  0  0  0
    6.0580    2.1372    0.0048 C   0  0  0  0  0  0
    4.8423    2.8307    0.1702 C   0  0  0  0  0  0
    2.4413    2.7979    0.3885 O   0  0  0  0  0  0
    1.2497    2.1621   -0.1073 C   0  0  0  0  0  0
    1.2271    0.6401    0.1431 C   0  0  0  0  0  0
    2.4098    0.0153    0.1637 N   0  0  0  0  0  0
    0.1626    0.0356    0.2916 O   0  0  0  0  0  0
    4.8590   -1.0605   -0.1600 H   0  0  0  0  0  0
    6.9953    0.2033   -0.2419 H   0  0  0  0  0  0
    6.9908    2.6836   -0.0225 H   0  0  0  0  0  0
    4.8447    3.9067    0.2727 H   0  0  0  0  0  0
    0.3820    2.6222    0.3659 H   0  0  0  0  0  0
    1.1645    2.3444   -1.1790 H   0  0  0  0  0  0
    2.4293   -0.9897    0.2552 H   0  0  0  0  0  0
  1  2  2  0  0  0
  1  6  1  0  0  0
  1  7  1  0  0  0
  2  3  1  0  0  0
  2 10  1  0  0  0
  3  4  2  0  0  0
  3 12  1  0  0  0
  4  5  1  0  0  0
  4 13  1  0  0  0
  5  6  2  0  0  0
  5 14  1  0  0  0
  6 15  1  0  0  0
  7  8  1  0  0  0
  8  9  1  0  0  0
  8 16  1  0  0  0
  8 17  1  0  0  0
  9 10  1  0  0  0
  9 11  2  0  0  0
 10 18  1  0  0  0
M  END
> <s_m_entry_name>
Schrodinger_fragment_433

> <i_m_number_of_atoms>
18

> <r_m_molecular_weight>
149.15049

> <s_m_molecular_formula>
C8H7N1O2

> <r_epik_Ionization_Penalty>
  0.0000

> <r_epik_Ionization_Penalty_Charging>
  0.0000

> <r_epik_Ionization_Penalty_Neutral>
  0.0000

> <r_epik_State_Penalty>
  0.0000

> <i_epik_Tot_Q>
0

> <r_epik_Metal_State_Penalty>
  0.0000

> <b_epik_Metal_Only>
0

> <s_m_entry_id>
4873

> <s_canvas_Unique_SMILES_Stereo>
N1C(=O)COc(c12)cccc2

$$$$
Schrodinger_fragment_347
                    3D
 Structure written by MMmdl.
 21 22  0  0  1  0            999 V2000
    3.8188   -0.8660   -0.2086 C   0  0  0  0  0  0
    3.8241   -2.2670    0.0029 C   0  0  0  0  0  0
    5.0603   -2.9244    0.2166 C   0  0  0  0  0  0
    6.2655   -2.1954    0.2064 C   0  0  0  0  0  0
    6.2503   -0.8072   -0.0246 C   0  0  0  0  0  0
    5.0272   -0.1442   -0.2364 C   0  0  0  0  0  0
    2.6364   -0.2042   -0.4248 O   0  0  0  0  0  0
    1.4894   -0.7798    0.2097 C   0  0  0  0  0  0
    1.4094   -2.3046    0.0115 C   0  0  0  0  0  0
    2.5831   -2.9810   -0.0349 N   0  0  0  0  0  0
    0.2990   -2.8451   -0.0682 O   0  0  0  0  0  0
    2.5929   -4.4487   -0.1137 C   0  0  0  0  0  0
    5.1078   -3.9897    0.3910 H   0  0  0  0  0  0
    7.2054   -2.7048    0.3704 H   0  0  0  0  0  0
    7.1770   -0.2500   -0.0390 H   0  0  0  0  0  0
    5.0168    0.9222   -0.4137 H   0  0  0  0  0  0
    1.5155   -0.5614    1.2778 H   0  0  0  0  0  0
    0.5916   -0.3103   -0.1926 H   0  0  0  0  0  0
    1.6289   -4.8822   -0.3826 H   0  0  0  0  0  0
    2.8855   -4.8743    0.8463 H   0  0  0  0  0  0
    3.3011   -4.7874   -0.8704 H   0  0  0  0  0  0
  1  2  2  0  0  0
  1  6  1  0  0  0
  1  7  1  0  0  0
  2  3  1  0  0  0
  2 10  1  0  0  0
  3  4  2  0  0  0
  3 13  1  0  0  0
  4  5  1  0  0  0
  4 14  1  0  0  0
  5  6  2  0  0  0
  5 15  1  0  0  0
  6 16  1  0  0  0
  7  8  1  0  0  0
  8  9  1  0  0  0
  8 17  1  0  0  0
  8 18  1  0  0  0
  9 10  1  0  0  0
  9 11  2  0  0  0
 10 12  1  0  0  0
 12 19  1  0  0  0
 12 20  1  0  0  0
 12 21  1  0  0  0
M  END
> <s_m_entry_name>
Schrodinger_fragment_434

> <i_m_number_of_atoms>
21

> <r_m_molecular_weight>
163.17758

> <s_m_molecular_formula>
C9H9N1O2

> <r_epik_Ionization_Penalty>
  0.0000

> <r_epik_Ionization_Penalty_Charging>
  0.0000

> <r_epik_Ionization_Penalty_Neutral>
  0.0000

> <r_epik_State_Penalty>
  0.0000

> <i_epik_Tot_Q>
0

> <r_epik_Metal_State_Penalty>
  0.0000

> <b_epik_Metal_Only>
0

> <s_m_entry_id>
4874

> <s_canvas_Unique_SMILES_Stereo>
CN1C(=O)COc(c12)cccc2

$$$$
Schrodinger_fragment_348
                    3D
 Structure written by MMmdl.
 19 20  0  0  1  0            999 V2000
    3.6879    3.5354    0.0215 C   0  0  0  0  0  0
    3.6756    2.1211    0.0267 C   0  0  0  0  0  0
    4.9016    1.4171    0.0297 C   0  0  0  0  0  0
    6.1253    2.1148    0.0275 C   0  0  0  0  0  0
    6.1321    3.5220    0.0223 C   0  0  0  0  0  0
    4.9162    4.2310    0.0193 C   0  0  0  0  0  0
    2.3843    4.3218    0.0182 C   0  0  0  0  0  0
    1.1264    3.4347    0.0210 C   0  0  0  0  0  0
    1.2337    2.0975    0.0260 N   0  0  0  0  0  0
    2.3639    1.3779    0.0290 C   0  0  0  0  0  0
    2.3395    0.1435    0.0336 O   0  0  0  0  0  0
    0.0159    3.9740    0.0187 O   0  0  0  0  0  0
    4.9092    0.3353    0.0337 H   0  0  0  0  0  0
    7.0593    1.5694    0.0299 H   0  0  0  0  0  0
    7.0712    4.0585    0.0207 H   0  0  0  0  0  0
    4.9299    5.3129    0.0153 H   0  0  0  0  0  0
    2.3554    4.9720    0.8929 H   0  0  0  0  0  0
    2.3560    4.9655   -0.8614 H   0  0  0  0  0  0
    0.3750    1.5741    0.0277 H   0  0  0  0  0  0
  1  2  2  0  0  0
  1  6  1  0  0  0
  1  7  1  0  0  0
  2  3  1  0  0  0
  2 10  1  0  0  0
  3  4  2  0  0  0
  3 13  1  0  0  0
  4  5  1  0  0  0
  4 14  1  0  0  0
  5  6  2  0  0  0
  5 15  1  0  0  0
  6 16  1  0  0  0
  7  8  1  0  0  0
  7 17  1  0  0  0
  7 18  1  0  0  0
  8  9  1  0  0  0
  8 12  2  0  0  0
  9 10  1  0  0  0
  9 19  1  0  0  0
 10 11  2  0  0  0
M  END
> <s_m_entry_name>
Schrodinger_fragment_435

> <i_m_number_of_atoms>
19

> <r_m_molecular_weight>
161.16164

> <s_m_molecular_formula>
C9H7N1O2

> <r_epik_Ionization_Penalty>
  0.0000

> <r_epik_Ionization_Penalty_Charging>
  0.0000

> <r_epik_Ionization_Penalty_Neutral>
  0.0000

> <r_epik_State_Penalty>
  0.0000

> <i_epik_Tot_Q>
0

> <r_epik_Metal_State_Penalty>
  0.0000

> <b_epik_Metal_Only>
0

> <s_m_entry_id>
4875

> <s_canvas_Unique_SMILES_Stereo>
c1cccc(c12)CC(=O)NC2=O

$$$$
Schrodinger_fragment_349
                    3D
 Structure written by MMmdl.
 22 23  0  0  1  0            999 V2000
    3.9040   -0.8244    0.0218 C   0  0  0  0  0  0
    3.8848   -2.2346    0.0254 C   0  0  0  0  0  0
    5.1127   -2.9386    0.0251 C   0  0  0  0  0  0
    6.3380   -2.2439    0.0214 C   0  0  0  0  0  0
    6.3475   -0.8372    0.0178 C   0  0  0  0  0  0
    5.1321   -0.1282    0.0180 C   0  0  0  0  0  0
    2.6066   -0.0427    0.0220 C   0  0  0  0  0  0
    1.3419   -0.9176    0.0267 C   0  0  0  0  0  0
    1.4077   -2.2768    0.0302 N   0  0  0  0  0  0
    2.5726   -2.9810    0.0295 C   0  0  0  0  0  0
    2.6013   -4.2188    0.0322 O   0  0  0  0  0  0
    0.2555   -0.3225    0.0272 O   0  0  0  0  0  0
    0.1214   -3.0066    0.0349 C   0  0  0  0  0  0
    5.1229   -4.0204    0.0278 H   0  0  0  0  0  0
    7.2710   -2.7913    0.0212 H   0  0  0  0  0  0
    7.2872   -0.3017    0.0149 H   0  0  0  0  0  0
    5.1463    0.9538    0.0153 H   0  0  0  0  0  0
    2.5817    0.6071    0.8971 H   0  0  0  0  0  0
    2.5785    0.6023   -0.8566 H   0  0  0  0  0  0
    0.2077   -4.0938    0.0383 H   0  0  0  0  0  0
   -0.4676   -2.7469   -0.8465 H   0  0  0  0  0  0
   -0.4644   -2.7412    0.9166 H   0  0  0  0  0  0
  1  2  2  0  0  0
  1  6  1  0  0  0
  1  7  1  0  0  0
  2  3  1  0  0  0
  2 10  1  0  0  0
  3  4  2  0  0  0
  3 14  1  0  0  0
  4  5  1  0  0  0
  4 15  1  0  0  0
  5  6  2  0  0  0
  5 16  1  0  0  0
  6 17  1  0  0  0
  7  8  1  0  0  0
  7 18  1  0  0  0
  7 19  1  0  0  0
  8  9  1  0  0  0
  8 12  2  0  0  0
  9 10  1  0  0  0
  9 13  1  0  0  0
 10 11  2  0  0  0
 13 20  1  0  0  0
 13 21  1  0  0  0
 13 22  1  0  0  0
M  END
> <s_m_entry_name>
Schrodinger_fragment_436

> <i_m_number_of_atoms>
22

> <r_m_molecular_weight>
175.18873

> <s_m_molecular_formula>
C10H9N1O2

> <r_epik_Ionization_Penalty>
  0.0000

> <r_epik_Ionization_Penalty_Charging>
  0.0000

> <r_epik_Ionization_Penalty_Neutral>
  0.0000

> <r_epik_State_Penalty>
  0.0000

> <i_epik_Tot_Q>
0

> <r_epik_Metal_State_Penalty>
  0.0000

> <b_epik_Metal_Only>
0

> <s_m_entry_id>
4876

> <s_canvas_Unique_SMILES_Stereo>
O=C1N(C)C(=O)Cc(c12)cccc2

$$$$
Schrodinger_fragment_350
                    3D
 Structure written by MMmdl.
 34 35  0  0  1  0            999 V2000
    1.4208   -2.2551   -0.7556 C   0  0  0  0  0  0
    2.7566   -1.5933   -1.1546 C   0  0  0  0  0  0
    3.4115   -0.7733   -0.0088 C   0  0  0  0  0  0
    2.3334    0.2035    0.5255 C   0  0  0  0  0  0
    1.0103   -0.4893    0.9085 C   0  0  0  0  0  0
    4.6039    0.0606   -0.5476 C   0  0  0  0  0  0
    5.8315   -0.7941   -0.9259 C   0  0  0  0  0  0
    5.1989   -2.4950    0.7435 C   0  0  0  0  0  0
    3.9546   -1.6707    1.1398 C   0  0  0  0  0  0
   -0.8601   -1.8636    0.0863 C   0  0  0  0  0  0
    0.9919   -2.7508   -1.6277 H   0  0  0  0  0  0
    1.5883   -3.0366   -0.0137 H   0  0  0  0  0  0
    3.4317   -2.3620   -1.5292 H   0  0  0  0  0  0
    2.5698   -0.9376   -2.0068 H   0  0  0  0  0  0
    2.7130    0.7532    1.3881 H   0  0  0  0  0  0
    2.1199    0.9614   -0.2303 H   0  0  0  0  0  0
    1.1587   -1.1475    1.7654 H   0  0  0  0  0  0
    0.2882    0.2652    1.2237 H   0  0  0  0  0  0
    4.2966    0.6504   -1.4126 H   0  0  0  0  0  0
    4.9100    0.7884    0.2058 H   0  0  0  0  0  0
    5.6060   -1.4331   -1.7803 H   0  0  0  0  0  0
    6.6554   -0.1496   -1.2345 H   0  0  0  0  0  0
    5.5785   -3.0383    1.6096 H   0  0  0  0  0  0
    4.9400   -3.2495    0.0002 H   0  0  0  0  0  0
    4.2206   -1.0433    1.9922 H   0  0  0  0  0  0
    3.1877   -2.3485    1.5132 H   0  0  0  0  0  0
   -1.5728   -1.1007    0.4008 H   0  0  0  0  0  0
   -0.7759   -2.5984    0.8877 H   0  0  0  0  0  0
   -1.2795   -2.3628   -0.7876 H   0  0  0  0  0  0
    0.4540   -1.2607   -0.2296 N   0  3  0  0  0  0
    0.2807   -0.5999   -0.9728 H   0  0  0  0  0  0
    6.2706   -1.6283    0.2113 N   0  3  0  0  0  0
    7.0422   -2.2055   -0.0846 H   0  0  0  0  0  0
    6.6139   -1.0328    0.9474 H   0  0  0  0  0  0
  1  2  1  0  0  0
  1 11  1  0  0  0
  1 12  1  0  0  0
  1 30  1  0  0  0
  2  3  1  0  0  0
  2 13  1  0  0  0
  2 14  1  0  0  0
  3  4  1  0  0  0
  3  6  1  0  0  0
  3  9  1  0  0  0
  4  5  1  0  0  0
  4 15  1  0  0  0
  4 16  1  0  0  0
  5 17  1  0  0  0
  5 18  1  0  0  0
  5 30  1  0  0  0
  6  7  1  0  0  0
  6 19  1  0  0  0
  6 20  1  0  0  0
  7 21  1  0  0  0
  7 22  1  0  0  0
  7 32  1  0  0  0
  8  9  1  0  0  0
  8 23  1  0  0  0
  8 24  1  0  0  0
  8 32  1  0  0  0
  9 25  1  0  0  0
  9 26  1  0  0  0
 10 27  1  0  0  0
 10 28  1  0  0  0
 10 29  1  0  0  0
 10 30  1  0  0  0
 30 31  1  0  0  0
 32 33  1  0  0  0
 32 34  1  0  0  0
M  CHG  2  30   1  32   1
M  END
> <s_m_entry_name>
Schrodinger_fragment_437

> <i_m_number_of_atoms>
34

> <r_m_molecular_weight>
170.30024

> <s_m_molecular_formula>
C10H22N2

> <r_epik_Ionization_Penalty>
  0.0063

> <r_epik_Ionization_Penalty_Charging>
  0.0063

> <r_epik_Ionization_Penalty_Neutral>
  0.0000

> <r_epik_State_Penalty>
  0.0000

> <i_epik_Tot_Q>
2

> <r_epik_Metal_State_Penalty>
  0.0000

> <b_epik_Metal_Only>
0

> <s_m_entry_id>
4877

> <s_canvas_Unique_SMILES_Stereo>
C1C[N@@H+](C)CC[C@]12CC[NH2+]CC2

$$$$
Schrodinger_fragment_351
                    3D
 Structure written by MMmdl.
 37 38  0  0  1  0            999 V2000
    2.4005   -1.9177    1.0181 C   0  0  0  0  0  0
    3.6963   -2.3400    0.2942 C   0  0  0  0  0  0
    4.3686   -1.1867   -0.5006 C   0  0  0  0  0  0
    3.2814   -0.5701   -1.4167 C   0  0  0  0  0  0
    1.9984   -0.1659   -0.6631 C   0  0  0  0  0  0
    5.5110   -1.7325   -1.3941 C   0  0  0  0  0  0
    6.7467   -2.1974   -0.5977 C   0  0  0  0  0  0
    6.2389   -0.5812    1.1874 C   0  0  0  0  0  0
    4.9886   -0.1005    0.4211 C   0  0  0  0  0  0
    0.1436   -0.9720    0.7414 C   0  0  0  0  0  0
    8.5106   -1.5082    0.9760 C   0  0  0  0  0  0
    1.9536   -2.7924    1.4927 H   0  0  0  0  0  0
    2.6240   -1.2162    1.8227 H   0  0  0  0  0  0
    4.3807   -2.7730    1.0228 H   0  0  0  0  0  0
    3.4536   -3.1557   -0.3891 H   0  0  0  0  0  0
    3.6768    0.2996   -1.9435 H   0  0  0  0  0  0
    3.0128   -1.2844   -2.1970 H   0  0  0  0  0  0
    2.2028    0.6562    0.0238 H   0  0  0  0  0  0
    1.2648    0.2084   -1.3785 H   0  0  0  0  0  0
    5.1505   -2.5575   -2.0103 H   0  0  0  0  0  0
    5.8250   -0.9602   -2.0985 H   0  0  0  0  0  0
    6.5028   -3.0702    0.0092 H   0  0  0  0  0  0
    7.5234   -2.5166   -1.2941 H   0  0  0  0  0  0
    6.6541    0.2528    1.7551 H   0  0  0  0  0  0
    5.9685   -1.3427    1.9198 H   0  0  0  0  0  0
    5.2706    0.7654   -0.1804 H   0  0  0  0  0  0
    4.2601    0.2761    1.1383 H   0  0  0  0  0  0
   -0.5810   -0.5982    0.0175 H   0  0  0  0  0  0
    0.2846   -0.2062    1.5050 H   0  0  0  0  0  0
   -0.2938   -1.8492    1.2190 H   0  0  0  0  0  0
    8.9160   -0.6721    1.5464 H   0  0  0  0  0  0
    9.2788   -1.8262    0.2706 H   0  0  0  0  0  0
    8.3249   -2.3309    1.6673 H   0  0  0  0  0  0
    1.4229   -1.3130    0.0804 N   0  3  0  0  0  0
    1.1978   -2.0204   -0.6036 H   0  0  0  0  0  0
    7.2732   -1.1133    0.2667 N   0  3  0  0  0  0
    7.5380   -0.3553   -0.3450 H   0  0  0  0  0  0
  1  2  1  0  0  0
  1 12  1  0  0  0
  1 13  1  0  0  0
  1 34  1  0  0  0
  2  3  1  0  0  0
  2 14  1  0  0  0
  2 15  1  0  0  0
  3  4  1  0  0  0
  3  6  1  0  0  0
  3  9  1  0  0  0
  4  5  1  0  0  0
  4 16  1  0  0  0
  4 17  1  0  0  0
  5 18  1  0  0  0
  5 19  1  0  0  0
  5 34  1  0  0  0
  6  7  1  0  0  0
  6 20  1  0  0  0
  6 21  1  0  0  0
  7 22  1  0  0  0
  7 23  1  0  0  0
  7 36  1  0  0  0
  8  9  1  0  0  0
  8 24  1  0  0  0
  8 25  1  0  0  0
  8 36  1  0  0  0
  9 26  1  0  0  0
  9 27  1  0  0  0
 10 28  1  0  0  0
 10 29  1  0  0  0
 10 30  1  0  0  0
 10 34  1  0  0  0
 11 31  1  0  0  0
 11 32  1  0  0  0
 11 33  1  0  0  0
 11 36  1  0  0  0
 34 35  1  0  0  0
 36 37  1  0  0  0
M  CHG  2  34   1  36   1
M  END
> <s_m_entry_name>
Schrodinger_fragment_438

> <i_m_number_of_atoms>
37

> <r_m_molecular_weight>
184.32733

> <s_m_molecular_formula>
C11H24N2

> <r_epik_Ionization_Penalty>
  0.0166

> <r_epik_Ionization_Penalty_Charging>
  0.0166

> <r_epik_Ionization_Penalty_Neutral>
  0.0000

> <r_epik_State_Penalty>
  0.0083

> <i_epik_Tot_Q>
2

> <r_epik_Metal_State_Penalty>
  0.0083

> <b_epik_Metal_Only>
0

> <s_m_entry_id>
4878

> <s_canvas_Unique_SMILES_Stereo>
C1C[N@@H+](C)CCC12CC[N@H+](C)CC2

$$$$
Schrodinger_fragment_351_a
                    3D
 Structure written by MMmdl.
 36 37  0  0  1  0            999 V2000
    2.3906   -1.8849    1.0095 C   0  0  0  0  0  0
    3.6864   -2.3255    0.3013 C   0  0  0  0  0  0
    4.3644   -1.1806   -0.4976 C   0  0  0  0  0  0
    3.2699   -0.5646   -1.4025 C   0  0  0  0  0  0
    1.9941   -0.1793   -0.6304 C   0  0  0  0  0  0
    5.5013   -1.7315   -1.3936 C   0  0  0  0  0  0
    6.7347   -2.2002   -0.5964 C   0  0  0  0  0  0
    6.2357   -0.5787    1.1869 C   0  0  0  0  0  0
    4.9872   -0.0945    0.4214 C   0  0  0  0  0  0
    0.1989   -0.9946    0.7105 C   0  0  0  0  0  0
    8.5035   -1.5144    0.9733 C   0  0  0  0  0  0
    1.9545   -2.7443    1.5224 H   0  0  0  0  0  0
    2.6042   -1.1409    1.7790 H   0  0  0  0  0  0
    4.3655   -2.7513    1.0394 H   0  0  0  0  0  0
    3.4449   -3.1479   -0.3744 H   0  0  0  0  0  0
    3.6568    0.3137   -1.9216 H   0  0  0  0  0  0
    3.0000   -1.2725   -2.1884 H   0  0  0  0  0  0
    2.2054    0.6081    0.0956 H   0  0  0  0  0  0
    1.2631    0.2304   -1.3301 H   0  0  0  0  0  0
    5.1349   -2.5561   -2.0068 H   0  0  0  0  0  0
    5.8163   -0.9613   -2.0996 H   0  0  0  0  0  0
    6.4861   -3.0700    0.0131 H   0  0  0  0  0  0
    7.5095   -2.5251   -1.2921 H   0  0  0  0  0  0
    6.6546    0.2546    1.7527 H   0  0  0  0  0  0
    5.9630   -1.3380    1.9207 H   0  0  0  0  0  0
    5.2692    0.7707   -0.1807 H   0  0  0  0  0  0
    4.2572    0.2811    1.1379 H   0  0  0  0  0  0
   -0.5364   -0.6110    0.0011 H   0  0  0  0  0  0
    0.3660   -0.2268    1.4686 H   0  0  0  0  0  0
   -0.2460   -1.8610    1.2028 H   0  0  0  0  0  0
    8.9130   -0.6785    1.5411 H   0  0  0  0  0  0
    9.2693   -1.8368    0.2673 H   0  0  0  0  0  0
    8.3158   -2.3348    1.6668 H   0  0  0  0  0  0
    1.4366   -1.3617    0.0294 N   0  0  0  0  0  0
    7.2665   -1.1164    0.2654 N   0  3  0  0  0  0
    7.5321   -0.3604   -0.3483 H   0  0  0  0  0  0
  1  2  1  0  0  0
  1 12  1  0  0  0
  1 13  1  0  0  0
  1 34  1  0  0  0
  2  3  1  0  0  0
  2 14  1  0  0  0
  2 15  1  0  0  0
  3  4  1  0  0  0
  3  6  1  0  0  0
  3  9  1  0  0  0
  4  5  1  0  0  0
  4 16  1  0  0  0
  4 17  1  0  0  0
  5 18  1  0  0  0
  5 19  1  0  0  0
  5 34  1  0  0  0
  6  7  1  0  0  0
  6 20  1  0  0  0
  6 21  1  0  0  0
  7 22  1  0  0  0
  7 23  1  0  0  0
  7 35  1  0  0  0
  8  9  1  0  0  0
  8 24  1  0  0  0
  8 25  1  0  0  0
  8 35  1  0  0  0
  9 26  1  0  0  0
  9 27  1  0  0  0
 10 28  1  0  0  0
 10 29  1  0  0  0
 10 30  1  0  0  0
 10 34  1  0  0  0
 11 31  1  0  0  0
 11 32  1  0  0  0
 11 33  1  0  0  0
 11 35  1  0  0  0
 35 36  1  0  0  0
M  CHG  1  35   1
M  END
> <s_m_entry_name>
Schrodinger_fragment_438

> <i_m_number_of_atoms>
37

> <r_m_molecular_weight>
184.32733

> <s_m_molecular_formula>
C11H24N2

> <r_epik_Ionization_Penalty>
  2.5349

> <r_epik_Ionization_Penalty_Charging>
  0.0007

> <r_epik_Ionization_Penalty_Neutral>
  2.5342

> <r_epik_State_Penalty>
  2.5342

> <i_epik_Tot_Q>
1

> <r_epik_Metal_State_Penalty>
  2.5342

> <b_epik_Metal_Only>
0

> <s_m_entry_id>
4879

> <s_canvas_Unique_SMILES_Stereo>
C1CN(C)CC[C@]12CC[N@H+](C)CC2

$$$$
Schrodinger_fragment_352
                    3D
 Structure written by MMmdl.
 17 18  0  0  1  0            999 V2000
    2.4741    2.2060    0.0236 C   0  0  0  0  0  0
    2.4724    0.7920    0.0226 C   0  0  0  0  0  0
    3.5930    0.0450    0.0254 N   0  0  0  0  0  0
    4.7802    0.6907    0.0295 C   0  0  0  0  0  0
    4.8922    2.0917    0.0308 C   0  0  0  0  0  0
    3.7175    2.8670    0.0278 C   0  0  0  0  0  0
    1.1816    2.9545    0.0202 C   0  0  0  0  0  0
   -0.0350    2.1144    0.0159 C   0  0  0  0  0  0
    0.0819    0.7710    0.0153 C   0  0  0  0  0  0
    1.3082    0.1209    0.0186 N   0  0  0  0  0  0
    1.1237    4.1881    0.0209 O   0  0  0  0  0  0
    5.6647    0.0708    0.0317 H   0  0  0  0  0  0
    5.8659    2.5624    0.0341 H   0  0  0  0  0  0
    3.7765    3.9461    0.0288 H   0  0  0  0  0  0
   -1.0010    2.5992    0.0133 H   0  0  0  0  0  0
   -0.7758    0.1123    0.0122 H   0  0  0  0  0  0
    1.3559   -0.8931    0.0180 H   0  0  0  0  0  0
  1  2  2  0  0  0
  1  6  1  0  0  0
  1  7  1  0  0  0
  2  3  1  0  0  0
  2 10  1  0  0  0
  3  4  2  0  0  0
  4  5  1  0  0  0
  4 12  1  0  0  0
  5  6  2  0  0  0
  5 13  1  0  0  0
  6 14  1  0  0  0
  7  8  1  0  0  0
  7 11  2  0  0  0
  8  9  2  0  0  0
  8 15  1  0  0  0
  9 10  1  0  0  0
  9 16  1  0  0  0
 10 17  1  0  0  0
M  END
> <s_m_entry_name>
Schrodinger_fragment_439

> <i_m_number_of_atoms>
17

> <r_m_molecular_weight>
146.14982

> <s_m_molecular_formula>
C8H6N2O1

> <r_epik_Ionization_Penalty>
  0.0362

> <r_epik_Ionization_Penalty_Charging>
  0.0362

> <r_epik_Ionization_Penalty_Neutral>
  0.0000

> <r_epik_State_Penalty>
  0.0362

> <i_epik_Tot_Q>
0

> <r_epik_Metal_State_Penalty>
  0.4243

> <b_epik_Metal_Only>
0

> <s_m_entry_id>
4880

> <s_canvas_Unique_SMILES_Stereo>
c1ccnc(c12)[nH]ccc2=O

$$$$
Schrodinger_fragment_352_a
                    3D
 Structure written by MMmdl.
 16 17  0  0  1  0            999 V2000
    2.4501    2.1848    0.0235 C   0  0  0  0  0  0
    2.4462    0.7566    0.0225 C   0  0  0  0  0  0
    3.6036    0.0590    0.0255 N   0  0  0  0  0  0
    4.7804    0.7136    0.0295 C   0  0  0  0  0  0
    4.8736    2.1100    0.0308 C   0  0  0  0  0  0
    3.6894    2.8627    0.0277 C   0  0  0  0  0  0
    1.2252    2.8881    0.0203 C   0  0  0  0  0  0
    0.0394    2.1504    0.0162 C   0  0  0  0  0  0
    0.1130    0.7470    0.0154 C   0  0  0  0  0  0
    1.2802    0.0726    0.0185 N   0  0  0  0  0  0
    1.1502    4.2513    0.0210 O   0  5  0  0  0  0
    5.6735    0.1049    0.0318 H   0  0  0  0  0  0
    5.8431    2.5949    0.0341 H   0  0  0  0  0  0
    3.7351    3.9427    0.0286 H   0  0  0  0  0  0
   -0.9371    2.6259    0.0135 H   0  0  0  0  0  0
   -0.7895    0.1523    0.0122 H   0  0  0  0  0  0
  1  2  2  0  0  0
  1  6  1  0  0  0
  1  7  1  0  0  0
  2  3  1  0  0  0
  2 10  1  0  0  0
  3  4  2  0  0  0
  4  5  1  0  0  0
  4 12  1  0  0  0
  5  6  2  0  0  0
  5 13  1  0  0  0
  6 14  1  0  0  0
  7  8  2  0  0  0
  7 11  1  0  0  0
  8  9  1  0  0  0
  8 15  1  0  0  0
  9 10  2  0  0  0
  9 16  1  0  0  0
M  CHG  1  11  -1
M  END
> <s_m_entry_name>
Schrodinger_fragment_439

> <i_m_number_of_atoms>
17

> <r_m_molecular_weight>
146.14982

> <s_m_molecular_formula>
C8H6N2O1

> <r_epik_Ionization_Penalty>
  1.6741

> <r_epik_Ionization_Penalty_Charging>
  0.0000

> <r_epik_Ionization_Penalty_Neutral>
  1.6741

> <r_epik_State_Penalty>
  1.6740

> <i_epik_Tot_Q>
-1

> <r_epik_Metal_State_Penalty>
  0.3974

> <b_epik_Metal_Only>
0

> <s_m_entry_id>
4881

> <s_canvas_Unique_SMILES_Stereo>
c1ccnc(c12)nccc2[O-]

$$$$
Schrodinger_fragment_353
                    3D
 Structure written by MMmdl.
 20 21  0  0  1  0            999 V2000
    2.4982   -2.1795    0.0215 C   0  0  0  0  0  0
    2.4933   -3.5964    0.0267 C   0  0  0  0  0  0
    3.6360   -4.3213    0.0326 N   0  0  0  0  0  0
    4.8177   -3.6699    0.0336 C   0  0  0  0  0  0
    4.9189   -2.2705    0.0287 C   0  0  0  0  0  0
    3.7371   -1.5094    0.0226 C   0  0  0  0  0  0
    1.2160   -1.4219    0.0151 C   0  0  0  0  0  0
   -0.0010   -2.2486    0.0147 C   0  0  0  0  0  0
    0.1049   -3.5907    0.0199 C   0  0  0  0  0  0
    1.3155   -4.2817    0.0259 N   0  0  0  0  0  0
    1.1664   -0.1880    0.0104 O   0  0  0  0  0  0
    1.2894   -5.7451    0.0312 C   0  0  0  0  0  0
    5.7061   -4.2840    0.0383 H   0  0  0  0  0  0
    5.8881   -1.7908    0.0297 H   0  0  0  0  0  0
    3.7885   -0.4299    0.0187 H   0  0  0  0  0  0
   -0.9631   -1.7566    0.0101 H   0  0  0  0  0  0
   -0.7782   -4.2149    0.0197 H   0  0  0  0  0  0
    0.2746   -6.1434    0.0298 H   0  0  0  0  0  0
    1.7949   -6.1328    0.9165 H   0  0  0  0  0  0
    1.7999   -6.1393   -0.8484 H   0  0  0  0  0  0
  1  2  2  0  0  0
  1  6  1  0  0  0
  1  7  1  0  0  0
  2  3  1  0  0  0
  2 10  1  0  0  0
  3  4  2  0  0  0
  4  5  1  0  0  0
  4 13  1  0  0  0
  5  6  2  0  0  0
  5 14  1  0  0  0
  6 15  1  0  0  0
  7  8  1  0  0  0
  7 11  2  0  0  0
  8  9  2  0  0  0
  8 16  1  0  0  0
  9 10  1  0  0  0
  9 17  1  0  0  0
 10 12  1  0  0  0
 12 18  1  0  0  0
 12 19  1  0  0  0
 12 20  1  0  0  0
M  END
> <s_m_entry_name>
Schrodinger_fragment_441

> <i_m_number_of_atoms>
20

> <r_m_molecular_weight>
160.17691

> <s_m_molecular_formula>
C9H8N2O1

> <r_epik_Ionization_Penalty>
  0.0000

> <r_epik_Ionization_Penalty_Charging>
  0.0000

> <r_epik_Ionization_Penalty_Neutral>
  0.0000

> <r_epik_State_Penalty>
  0.0000

> <i_epik_Tot_Q>
0

> <r_epik_Metal_State_Penalty>
  0.0000

> <b_epik_Metal_Only>
0

> <s_m_entry_id>
4882

> <s_canvas_Unique_SMILES_Stereo>
O=c1ccn(C)c(c12)nccc2

$$$$
Schrodinger_fragment_354
                    3D
 Structure written by MMmdl.
 17 18  0  0  1  0            999 V2000
    2.4609    2.1738    0.0214 C   0  0  0  0  0  0
    2.4267    0.7568    0.0244 C   0  0  0  0  0  0
    3.6390    0.0361    0.0296 C   0  0  0  0  0  0
    4.8718    0.7179    0.0318 C   0  0  0  0  0  0
    4.9022    2.1259    0.0288 C   0  0  0  0  0  0
    3.6973    2.8554    0.0236 C   0  0  0  0  0  0
    1.1523    2.9133    0.0159 C   0  0  0  0  0  0
    0.0599    2.1363    0.0143 N   0  0  0  0  0  0
    0.1019    0.7398    0.0175 C   0  0  0  0  0  0
    1.2094    0.0548    0.0223 N   0  0  0  0  0  0
    1.0987    4.1467    0.0131 O   0  0  0  0  0  0
    3.6297   -1.0456    0.0320 H   0  0  0  0  0  0
    5.7970    0.1581    0.0358 H   0  0  0  0  0  0
    5.8502    2.6467    0.0305 H   0  0  0  0  0  0
    3.7241    3.9367    0.0213 H   0  0  0  0  0  0
   -0.8404    2.5899    0.0107 H   0  0  0  0  0  0
   -0.8840    0.2717    0.0156 H   0  0  0  0  0  0
  1  2  2  0  0  0
  1  6  1  0  0  0
  1  7  1  0  0  0
  2  3  1  0  0  0
  2 10  1  0  0  0
  3  4  2  0  0  0
  3 12  1  0  0  0
  4  5  1  0  0  0
  4 13  1  0  0  0
  5  6  2  0  0  0
  5 14  1  0  0  0
  6 15  1  0  0  0
  7  8  1  0  0  0
  7 11  2  0  0  0
  8  9  1  0  0  0
  8 16  1  0  0  0
  9 10  2  0  0  0
  9 17  1  0  0  0
M  END
> <s_m_entry_name>
Schrodinger_fragment_443

> <i_m_number_of_atoms>
17

> <r_m_molecular_weight>
146.14982

> <s_m_molecular_formula>
C8H6N2O1

> <r_epik_Ionization_Penalty>
  0.0073

> <r_epik_Ionization_Penalty_Charging>
  0.0073

> <r_epik_Ionization_Penalty_Neutral>
  0.0000

> <r_epik_State_Penalty>
  0.0796

> <i_epik_Tot_Q>
0

> <r_epik_Metal_State_Penalty>
  0.4307

> <b_epik_Metal_Only>
0

> <s_m_entry_id>
4883

> <s_canvas_Unique_SMILES_Stereo>
c1cccc(c12)nc[nH]c2=O

$$$$
Schrodinger_fragment_354_a
                    3D
 Structure written by MMmdl.
 17 18  0  0  1  0            999 V2000
    2.4584    2.1465    0.0215 C   0  0  0  0  0  0
    2.4522    0.7328    0.0246 C   0  0  0  0  0  0
    3.6615    0.0092    0.0297 C   0  0  0  0  0  0
    4.8865    0.7051    0.0319 C   0  0  0  0  0  0
    4.9017    2.1146    0.0288 C   0  0  0  0  0  0
    3.6909    2.8365    0.0237 C   0  0  0  0  0  0
    1.1278    2.8756    0.0159 C   0  0  0  0  0  0
   -0.0501    2.1150    0.0141 N   0  0  0  0  0  0
    0.0511    0.8168    0.0172 C   0  0  0  0  0  0
    1.2543    0.1271    0.0223 N   0  0  0  0  0  0
    1.1211    4.1064    0.0132 O   0  0  0  0  0  0
    3.6626   -1.0723    0.0321 H   0  0  0  0  0  0
    5.8178    0.1556    0.0359 H   0  0  0  0  0  0
    5.8452    2.6438    0.0305 H   0  0  0  0  0  0
    3.7148    3.9176    0.0214 H   0  0  0  0  0  0
    1.2648   -0.8892    0.0246 H   0  0  0  0  0  0
   -0.8334    0.1764    0.0160 H   0  0  0  0  0  0
  1  7  1  0  0  0
  1  6  1  0  0  0
  1  2  2  0  0  0
  2  3  1  0  0  0
  2 10  1  0  0  0
  3  4  2  0  0  0
  3 12  1  0  0  0
  4  5  1  0  0  0
  4 13  1  0  0  0
  5  6  2  0  0  0
  5 14  1  0  0  0
  6 15  1  0  0  0
  7 11  2  0  0  0
  7  8  1  0  0  0
  8  9  2  0  0  0
  9 10  1  0  0  0
  9 17  1  0  0  0
 10 16  1  0  0  0
M  END
> <s_m_entry_name>
Schrodinger_fragment_443

> <i_m_number_of_atoms>
17

> <r_m_molecular_weight>
146.14982

> <s_m_molecular_formula>
C8H6N2O1

> <r_epik_Ionization_Penalty>
  0.0502

> <r_epik_Ionization_Penalty_Charging>
  0.0502

> <r_epik_Ionization_Penalty_Neutral>
  0.0000

> <r_epik_State_Penalty>
  1.2825

> <i_epik_Tot_Q>
0

> <r_epik_Metal_State_Penalty>
  1.6336

> <b_epik_Metal_Only>
0

> <s_m_entry_id>
4884

> <s_canvas_Unique_SMILES_Stereo>
c1cccc(c12)[nH]cnc2=O

$$$$
Schrodinger_fragment_354_b
                    3D
 Structure written by MMmdl.
 16 17  0  0  1  0            999 V2000
    2.4562    2.1595    0.0214 C   0  0  0  0  0  0
    2.4148    0.7452    0.0244 C   0  0  0  0  0  0
    3.6325    0.0371    0.0296 C   0  0  0  0  0  0
    4.8682    0.7146    0.0318 C   0  0  0  0  0  0
    4.8961    2.1217    0.0288 C   0  0  0  0  0  0
    3.6904    2.8486    0.0236 C   0  0  0  0  0  0
    1.2183    2.8162    0.0163 C   0  0  0  0  0  0
    0.0643    2.1447    0.0143 N   0  0  0  0  0  0
    0.1259    0.8119    0.0174 C   0  0  0  0  0  0
    1.2368    0.0913    0.0223 N   0  0  0  0  0  0
    1.0710    4.1684    0.0129 O   0  5  0  0  0  0
    3.6150   -1.0437    0.0319 H   0  0  0  0  0  0
    5.7943    0.1556    0.0358 H   0  0  0  0  0  0
    5.8457    2.6440    0.0305 H   0  0  0  0  0  0
    3.7144    3.9300    0.0213 H   0  0  0  0  0  0
   -0.8106    0.2730    0.0158 H   0  0  0  0  0  0
  1  2  2  0  0  0
  1  6  1  0  0  0
  1  7  1  0  0  0
  2  3  1  0  0  0
  2 10  1  0  0  0
  3  4  2  0  0  0
  3 12  1  0  0  0
  4  5  1  0  0  0
  4 13  1  0  0  0
  5  6  2  0  0  0
  5 14  1  0  0  0
  6 15  1  0  0  0
  7  8  2  0  0  0
  7 11  1  0  0  0
  8  9  1  0  0  0
  9 10  2  0  0  0
  9 16  1  0  0  0
M  CHG  1  11  -1
M  END
> <s_m_entry_name>
Schrodinger_fragment_443

> <i_m_number_of_atoms>
17

> <r_m_molecular_weight>
146.14982

> <s_m_molecular_formula>
C8H6N2O1

> <r_epik_Ionization_Penalty>
  4.0919

> <r_epik_Ionization_Penalty_Charging>
  0.0000

> <r_epik_Ionization_Penalty_Neutral>
  4.0919

> <r_epik_State_Penalty>
  2.6771

> <i_epik_Tot_Q>
-1

> <r_epik_Metal_State_Penalty>
  0.4690

> <b_epik_Metal_Only>
0

> <s_m_entry_id>
4885

> <s_canvas_Unique_SMILES_Stereo>
c1cccc(c12)ncnc2[O-]

$$$$
Schrodinger_fragment_355
                    3D
 Structure written by MMmdl.
 20 21  0  0  1  0            999 V2000
    3.0320   -2.1867   -0.0109 C   0  0  0  0  0  0
    2.9872   -3.5981    0.0861 C   0  0  0  0  0  0
    4.1925   -4.3300    0.1120 C   0  0  0  0  0  0
    5.4312   -3.6631    0.0420 C   0  0  0  0  0  0
    5.4737   -2.2590   -0.0545 C   0  0  0  0  0  0
    4.2752   -1.5197   -0.0810 C   0  0  0  0  0  0
    1.7313   -1.4330   -0.0364 C   0  0  0  0  0  0
    0.6119   -2.1912    0.0376 N   0  0  0  0  0  0
    0.6642   -3.5959    0.1322 C   0  0  0  0  0  0
    1.7677   -4.2859    0.1572 N   0  0  0  0  0  0
    1.7164   -0.1982   -0.1203 O   0  0  0  0  0  0
   -0.7131   -1.5595    0.0211 C   0  0  0  0  0  0
    4.1733   -5.4091    0.1859 H   0  0  0  0  0  0
    6.3511   -4.2312    0.0624 H   0  0  0  0  0  0
    6.4260   -1.7487   -0.1081 H   0  0  0  0  0  0
    4.3131   -0.4413   -0.1552 H   0  0  0  0  0  0
   -0.3113   -4.0820    0.1847 H   0  0  0  0  0  0
   -1.5398   -2.2686    0.0861 H   0  0  0  0  0  0
   -0.8490   -0.9890   -0.8989 H   0  0  0  0  0  0
   -0.8137   -0.8688    0.8596 H   0  0  0  0  0  0
  1  2  2  0  0  0
  1  6  1  0  0  0
  1  7  1  0  0  0
  2  3  1  0  0  0
  2 10  1  0  0  0
  3  4  2  0  0  0
  3 13  1  0  0  0
  4  5  1  0  0  0
  4 14  1  0  0  0
  5  6  2  0  0  0
  5 15  1  0  0  0
  6 16  1  0  0  0
  7  8  1  0  0  0
  7 11  2  0  0  0
  8  9  1  0  0  0
  8 12  1  0  0  0
  9 10  2  0  0  0
  9 17  1  0  0  0
 12 18  1  0  0  0
 12 19  1  0  0  0
 12 20  1  0  0  0
M  END
> <s_m_entry_name>
Schrodinger_fragment_444

> <i_m_number_of_atoms>
20

> <r_m_molecular_weight>
160.17691

> <s_m_molecular_formula>
C9H8N2O1

> <r_epik_Ionization_Penalty>
  0.0000

> <r_epik_Ionization_Penalty_Charging>
  0.0000

> <r_epik_Ionization_Penalty_Neutral>
  0.0000

> <r_epik_State_Penalty>
  0.0000

> <i_epik_Tot_Q>
0

> <r_epik_Metal_State_Penalty>
  0.0000

> <b_epik_Metal_Only>
0

> <s_m_entry_id>
4886

> <s_canvas_Unique_SMILES_Stereo>
O=c1n(C)cnc(c12)cccc2

$$$$
Schrodinger_fragment_356
                    3D
 Structure written by MMmdl.
 17 18  0  0  1  0            999 V2000
    3.6479    2.1580    0.0209 C   0  0  0  0  0  0
    3.6237    0.7390    0.0254 C   0  0  0  0  0  0
    4.8425    0.0317    0.0303 C   0  0  0  0  0  0
    6.0671    0.7296    0.0308 C   0  0  0  0  0  0
    6.0815    2.1390    0.0263 C   0  0  0  0  0  0
    4.8703    2.8579    0.0213 C   0  0  0  0  0  0
    2.4103    2.8489    0.0160 N   0  0  0  0  0  0
    1.2142    2.2289    0.0153 C   0  0  0  0  0  0
    1.3101    0.7079    0.0204 C   0  0  0  0  0  0
    2.4057    0.0368    0.0250 N   0  0  0  0  0  0
    0.1357    2.8295    0.0111 O   0  0  0  0  0  0
    4.8444   -1.0495    0.0338 H   0  0  0  0  0  0
    6.9989    0.1808    0.0346 H   0  0  0  0  0  0
    7.0237    2.6698    0.0267 H   0  0  0  0  0  0
    4.8878    3.9389    0.0179 H   0  0  0  0  0  0
    2.4246    3.8575    0.0128 H   0  0  0  0  0  0
    0.3661    0.1572    0.0201 H   0  0  0  0  0  0
  1  2  2  0  0  0
  1  6  1  0  0  0
  1  7  1  0  0  0
  2  3  1  0  0  0
  2 10  1  0  0  0
  3  4  2  0  0  0
  3 12  1  0  0  0
  4  5  1  0  0  0
  4 13  1  0  0  0
  5  6  2  0  0  0
  5 14  1  0  0  0
  6 15  1  0  0  0
  7  8  1  0  0  0
  7 16  1  0  0  0
  8  9  1  0  0  0
  8 11  2  0  0  0
  9 10  2  0  0  0
  9 17  1  0  0  0
M  END
> <s_m_entry_name>
Schrodinger_fragment_445

> <i_m_number_of_atoms>
17

> <r_m_molecular_weight>
146.14982

> <s_m_molecular_formula>
C8H6N2O1

> <r_epik_Ionization_Penalty>
  0.0002

> <r_epik_Ionization_Penalty_Charging>
  0.0002

> <r_epik_Ionization_Penalty_Neutral>
  0.0000

> <r_epik_State_Penalty>
  0.0000

> <i_epik_Tot_Q>
0

> <r_epik_Metal_State_Penalty>
  0.1121

> <b_epik_Metal_Only>
0

> <s_m_entry_id>
4887

> <s_canvas_Unique_SMILES_Stereo>
n1cc(=O)[nH]c(c12)cccc2

$$$$
Schrodinger_fragment_356_a
                    3D
 Structure written by MMmdl.
 16 17  0  0  1  0            999 V2000
    3.6084    2.1518    0.0208 C   0  0  0  0  0  0
    3.6089    0.7150    0.0254 C   0  0  0  0  0  0
    4.8416    0.0293    0.0303 C   0  0  0  0  0  0
    6.0639    0.7296    0.0308 C   0  0  0  0  0  0
    6.0623    2.1360    0.0263 C   0  0  0  0  0  0
    4.8398    2.8370    0.0213 C   0  0  0  0  0  0
    2.4426    2.8598    0.0160 N   0  0  0  0  0  0
    1.3085    2.1383    0.0158 C   0  0  0  0  0  0
    1.2945    0.7249    0.0203 C   0  0  0  0  0  0
    2.4452    0.0143    0.0251 N   0  0  0  0  0  0
    0.1746    2.8818    0.0110 O   0  5  0  0  0  0
    4.8456   -1.0515    0.0338 H   0  0  0  0  0  0
    7.0020    0.1876    0.0346 H   0  0  0  0  0  0
    6.9996    2.6792    0.0266 H   0  0  0  0  0  0
    4.8518    3.9184    0.0179 H   0  0  0  0  0  0
    0.3671    0.1667    0.0201 H   0  0  0  0  0  0
  1  2  2  0  0  0
  1  6  1  0  0  0
  1  7  1  0  0  0
  2  3  1  0  0  0
  2 10  1  0  0  0
  3  4  2  0  0  0
  3 12  1  0  0  0
  4  5  1  0  0  0
  4 13  1  0  0  0
  5  6  2  0  0  0
  5 14  1  0  0  0
  6 15  1  0  0  0
  7  8  2  0  0  0
  8  9  1  0  0  0
  8 11  1  0  0  0
  9 10  2  0  0  0
  9 16  1  0  0  0
M  CHG  1  11  -1
M  END
> <s_m_entry_name>
Schrodinger_fragment_445

> <i_m_number_of_atoms>
17

> <r_m_molecular_weight>
146.14982

> <s_m_molecular_formula>
C8H6N2O1

> <r_epik_Ionization_Penalty>
  4.8888

> <r_epik_Ionization_Penalty_Charging>
  0.0046

> <r_epik_Ionization_Penalty_Neutral>
  4.8842

> <r_epik_State_Penalty>
  4.8840

> <i_epik_Tot_Q>
-1

> <r_epik_Metal_State_Penalty>
  1.0416

> <b_epik_Metal_Only>
1

> <s_m_entry_id>
4888

> <s_canvas_Unique_SMILES_Stereo>
n1c([O-])cnc(c12)cccc2

$$$$
Schrodinger_fragment_357
                    3D
 Structure written by MMmdl.
 20 21  0  0  1  0            999 V2000
    3.8462   -1.2270    0.0201 C   0  0  0  0  0  0
    3.8325   -2.6485    0.0341 C   0  0  0  0  0  0
    5.0463   -3.3639    0.0012 C   0  0  0  0  0  0
    6.2747   -2.6792   -0.0455 C   0  0  0  0  0  0
    6.2952   -1.2728   -0.0596 C   0  0  0  0  0  0
    5.0886   -0.5480   -0.0271 C   0  0  0  0  0  0
    2.5902   -0.5260    0.0545 N   0  0  0  0  0  0
    1.4024   -1.1946    0.0997 C   0  0  0  0  0  0
    1.5313   -2.7074    0.1100 C   0  0  0  0  0  0
    2.6300   -3.3634    0.0803 N   0  0  0  0  0  0
    0.2868   -0.6570    0.1311 O   0  0  0  0  0  0
    2.5936    0.9449    0.0403 C   0  0  0  0  0  0
    5.0412   -4.4453    0.0117 H   0  0  0  0  0  0
    7.2021   -3.2347   -0.0706 H   0  0  0  0  0  0
    7.2397   -0.7471   -0.0955 H   0  0  0  0  0  0
    5.1434    0.5308   -0.0391 H   0  0  0  0  0  0
    0.5973   -3.2734    0.1459 H   0  0  0  0  0  0
    1.6015    1.3968    0.0685 H   0  0  0  0  0  0
    3.0794    1.3124   -0.8639 H   0  0  0  0  0  0
    3.1372    1.3292    0.9038 H   0  0  0  0  0  0
  1  2  2  0  0  0
  1  6  1  0  0  0
  1  7  1  0  0  0
  2  3  1  0  0  0
  2 10  1  0  0  0
  3  4  2  0  0  0
  3 13  1  0  0  0
  4  5  1  0  0  0
  4 14  1  0  0  0
  5  6  2  0  0  0
  5 15  1  0  0  0
  6 16  1  0  0  0
  7  8  1  0  0  0
  7 12  1  0  0  0
  8  9  1  0  0  0
  8 11  2  0  0  0
  9 10  2  0  0  0
  9 17  1  0  0  0
 12 18  1  0  0  0
 12 19  1  0  0  0
 12 20  1  0  0  0
M  END
> <s_m_entry_name>
Schrodinger_fragment_446

> <i_m_number_of_atoms>
20

> <r_m_molecular_weight>
160.17691

> <s_m_molecular_formula>
C9H8N2O1

> <r_epik_Ionization_Penalty>
  0.0000

> <r_epik_Ionization_Penalty_Charging>
  0.0000

> <r_epik_Ionization_Penalty_Neutral>
  0.0000

> <r_epik_State_Penalty>
  0.0000

> <i_epik_Tot_Q>
0

> <r_epik_Metal_State_Penalty>
  0.0000

> <b_epik_Metal_Only>
0

> <s_m_entry_id>
4889

> <s_canvas_Unique_SMILES_Stereo>
Cn1c(=O)cnc(c12)cccc2

$$$$
Schrodinger_fragment_358
                    3D
 Structure written by MMmdl.
 17 18  0  0  1  0            999 V2000
    0.0589    2.1587    0.0314 C   0  0  0  0  0  0
    0.0732    0.7157    0.0299 C   0  0  0  0  0  0
    1.2359    0.0347    0.0253 C   0  0  0  0  0  0
    2.5217    0.7124    0.0215 C   0  0  0  0  0  0
    2.4781    2.1473    0.0231 N   0  0  0  0  0  0
    1.2289    2.8180    0.0280 C   0  0  0  0  0  0
    3.6568    0.0807    0.0170 N   0  0  0  0  0  0
    4.8493    0.7964    0.0136 C   0  0  0  0  0  0
    4.8744    2.1412    0.0149 C   0  0  0  0  0  0
    3.6272    2.8978    0.0199 C   0  0  0  0  0  0
    3.6303    4.1368    0.0211 O   0  0  0  0  0  0
   -0.8790    2.6990    0.0352 H   0  0  0  0  0  0
   -0.8619    0.1727    0.0326 H   0  0  0  0  0  0
    1.1838   -1.0441    0.0244 H   0  0  0  0  0  0
    1.2660    3.8991    0.0290 H   0  0  0  0  0  0
    5.7622    0.2161    0.0099 H   0  0  0  0  0  0
    5.8179    2.6672    0.0121 H   0  0  0  0  0  0
  1  2  1  0  0  0
  1  6  2  0  0  0
  1 12  1  0  0  0
  2  3  2  0  0  0
  2 13  1  0  0  0
  3  4  1  0  0  0
  3 14  1  0  0  0
  4  5  1  0  0  0
  4  7  2  0  0  0
  5  6  1  0  0  0
  5 10  1  0  0  0
  6 15  1  0  0  0
  7  8  1  0  0  0
  8  9  2  0  0  0
  8 16  1  0  0  0
  9 10  1  0  0  0
  9 17  1  0  0  0
 10 11  2  0  0  0
M  END
> <s_m_entry_name>
Schrodinger_fragment_447

> <i_m_number_of_atoms>
17

> <r_m_molecular_weight>
146.14982

> <s_m_molecular_formula>
C8H6N2O1

> <r_epik_Ionization_Penalty>
  0.0000

> <r_epik_Ionization_Penalty_Charging>
  0.0000

> <r_epik_Ionization_Penalty_Neutral>
  0.0000

> <r_epik_State_Penalty>
  0.0000

> <i_epik_Tot_Q>
0

> <r_epik_Metal_State_Penalty>
  0.0000

> <b_epik_Metal_Only>
0

> <s_m_entry_id>
4890

> <s_canvas_Unique_SMILES_Stereo>
n1ccc(=O)n(c12)cccc2

$$$$
Schrodinger_fragment_359
                    3D
 Structure written by MMmdl.
 17 18  0  0  1  0            999 V2000
    3.6739    2.1278    0.0218 C   0  0  0  0  0  0
    3.6458    0.7235    0.0248 C   0  0  0  0  0  0
    4.8622    0.0198    0.0295 C   0  0  0  0  0  0
    6.0592    0.7586    0.0312 C   0  0  0  0  0  0
    6.0973    2.1103    0.0284 N   0  0  0  0  0  0
    4.9226    2.7793    0.0238 C   0  0  0  0  0  0
    2.3863    2.8234    0.0169 C   0  0  0  0  0  0
    1.2249    2.1352    0.0152 C   0  0  0  0  0  0
    1.1899    0.6700    0.0183 C   0  0  0  0  0  0
    2.3927    0.0584    0.0228 N   0  0  0  0  0  0
    0.1465    0.0139    0.0169 O   0  0  0  0  0  0
    4.8923   -1.0607    0.0319 H   0  0  0  0  0  0
    7.0131    0.2521    0.0348 H   0  0  0  0  0  0
    4.9831    3.8578    0.0216 H   0  0  0  0  0  0
    2.3883    3.9045    0.0146 H   0  0  0  0  0  0
    0.2889    2.6755    0.0116 H   0  0  0  0  0  0
    2.4005   -0.9503    0.0250 H   0  0  0  0  0  0
  1  2  2  0  0  0
  1  6  1  0  0  0
  1  7  1  0  0  0
  2  3  1  0  0  0
  2 10  1  0  0  0
  3  4  2  0  0  0
  3 12  1  0  0  0
  4  5  1  0  0  0
  4 13  1  0  0  0
  5  6  2  0  0  0
  6 14  1  0  0  0
  7  8  2  0  0  0
  7 15  1  0  0  0
  8  9  1  0  0  0
  8 16  1  0  0  0
  9 10  1  0  0  0
  9 11  2  0  0  0
 10 17  1  0  0  0
M  END
> <s_m_entry_name>
Schrodinger_fragment_448

> <i_m_number_of_atoms>
17

> <r_m_molecular_weight>
146.14982

> <s_m_molecular_formula>
C8H6N2O1

> <r_epik_Ionization_Penalty>
  0.0026

> <r_epik_Ionization_Penalty_Charging>
  0.0017

> <r_epik_Ionization_Penalty_Neutral>
  0.0009

> <r_epik_State_Penalty>
  0.0000

> <i_epik_Tot_Q>
0

> <r_epik_Metal_State_Penalty>
  0.3302

> <b_epik_Metal_Only>
0

> <s_m_entry_id>
4891

> <s_canvas_Unique_SMILES_Stereo>
c1nccc(c12)[nH]c(=O)cc2

$$$$
Schrodinger_fragment_359_a
                    3D
 Structure written by MMmdl.
 16 17  0  0  1  0            999 V2000
    3.6518    2.1296    0.0218 C   0  0  0  0  0  0
    3.6138    0.7266    0.0247 C   0  0  0  0  0  0
    4.8281    0.0432    0.0294 C   0  0  0  0  0  0
    6.0293    0.7653    0.0311 C   0  0  0  0  0  0
    6.0705    2.1114    0.0283 N   0  0  0  0  0  0
    4.8986    2.7786    0.0237 C   0  0  0  0  0  0
    2.4438    2.8541    0.0170 C   0  0  0  0  0  0
    1.2367    2.1294    0.0153 C   0  0  0  0  0  0
    1.2970    0.7330    0.0184 C   0  0  0  0  0  0
    2.4408    0.0395    0.0230 N   0  0  0  0  0  0
    0.1787   -0.0325    0.0171 O   0  5  0  0  0  0
    4.8524   -1.0380    0.0318 H   0  0  0  0  0  0
    6.9795    0.2505    0.0347 H   0  0  0  0  0  0
    4.9603    3.8573    0.0216 H   0  0  0  0  0  0
    2.4396    3.9354    0.0146 H   0  0  0  0  0  0
    0.2852    2.6534    0.0116 H   0  0  0  0  0  0
  1  2  2  0  0  0
  1  6  1  0  0  0
  1  7  1  0  0  0
  2  3  1  0  0  0
  2 10  1  0  0  0
  3  4  2  0  0  0
  3 12  1  0  0  0
  4  5  1  0  0  0
  4 13  1  0  0  0
  5  6  2  0  0  0
  6 14  1  0  0  0
  7  8  2  0  0  0
  7 15  1  0  0  0
  8  9  1  0  0  0
  8 16  1  0  0  0
  9 10  2  0  0  0
  9 11  1  0  0  0
M  CHG  1  11  -1
M  END
> <s_m_entry_name>
Schrodinger_fragment_448

> <i_m_number_of_atoms>
17

> <r_m_molecular_weight>
146.14982

> <s_m_molecular_formula>
C8H6N2O1

> <r_epik_Ionization_Penalty>
  3.4781

> <r_epik_Ionization_Penalty_Charging>
  0.0166

> <r_epik_Ionization_Penalty_Neutral>
  3.4614

> <r_epik_State_Penalty>
  3.4583

> <i_epik_Tot_Q>
-1

> <r_epik_Metal_State_Penalty>
  0.5039

> <b_epik_Metal_Only>
1

> <s_m_entry_id>
4892

> <s_canvas_Unique_SMILES_Stereo>
c1nccc(c12)nc([O-])cc2

$$$$
Schrodinger_fragment_360
                    3D
 Structure written by MMmdl.
 20 21  0  0  1  0            999 V2000
    3.8756   -0.7061    0.0194 C   0  0  0  0  0  0
    3.8436   -2.1131    0.0261 C   0  0  0  0  0  0
    5.0827   -2.7929    0.0317 C   0  0  0  0  0  0
    6.2715   -2.0444    0.0301 C   0  0  0  0  0  0
    6.2987   -0.6951    0.0236 N   0  0  0  0  0  0
    5.1173   -0.0429    0.0184 C   0  0  0  0  0  0
    2.6022    0.0005    0.0137 C   0  0  0  0  0  0
    1.4391   -0.6747    0.0149 C   0  0  0  0  0  0
    1.3786   -2.1369    0.0219 C   0  0  0  0  0  0
    2.5771   -2.7986    0.0272 N   0  0  0  0  0  0
    0.2933   -2.7285    0.0228 O   0  0  0  0  0  0
    2.5915   -4.2708    0.0344 C   0  0  0  0  0  0
    5.1512   -3.8703    0.0370 H   0  0  0  0  0  0
    7.2298   -2.5428    0.0343 H   0  0  0  0  0  0
    5.1665    1.0363    0.0132 H   0  0  0  0  0  0
    2.6143    1.0818    0.0084 H   0  0  0  0  0  0
    0.5106   -0.1221    0.0105 H   0  0  0  0  0  0
    1.6073   -4.7400    0.0349 H   0  0  0  0  0  0
    3.1105   -4.6361    0.9209 H   0  0  0  0  0  0
    3.1137   -4.6447   -0.8467 H   0  0  0  0  0  0
  1  2  2  0  0  0
  1  6  1  0  0  0
  1  7  1  0  0  0
  2  3  1  0  0  0
  2 10  1  0  0  0
  3  4  2  0  0  0
  3 13  1  0  0  0
  4  5  1  0  0  0
  4 14  1  0  0  0
  5  6  2  0  0  0
  6 15  1  0  0  0
  7  8  2  0  0  0
  7 16  1  0  0  0
  8  9  1  0  0  0
  8 17  1  0  0  0
  9 10  1  0  0  0
  9 11  2  0  0  0
 10 12  1  0  0  0
 12 18  1  0  0  0
 12 19  1  0  0  0
 12 20  1  0  0  0
M  END
> <s_m_entry_name>
Schrodinger_fragment_450

> <i_m_number_of_atoms>
20

> <r_m_molecular_weight>
160.17691

> <s_m_molecular_formula>
C9H8N2O1

> <r_epik_Ionization_Penalty>
  0.0012

> <r_epik_Ionization_Penalty_Charging>
  0.0000

> <r_epik_Ionization_Penalty_Neutral>
  0.0012

> <r_epik_State_Penalty>
  0.0000

> <i_epik_Tot_Q>
0

> <r_epik_Metal_State_Penalty>
  0.0000

> <b_epik_Metal_Only>
0

> <s_m_entry_id>
4893

> <s_canvas_Unique_SMILES_Stereo>
c1cc(=O)n(C)c(c12)ccnc2

$$$$
Schrodinger_fragment_361
                    3D
 Structure written by MMmdl.
 19 20  0  0  1  0            999 V2000
    1.2196    2.0176    0.0295 N   0  0  0  0  0  0
    1.2204    0.6763    0.0270 C   0  0  0  0  0  0
    2.4241    0.0824    0.0235 N   0  0  0  0  0  0
    3.6738    0.7437    0.0222 C   0  0  0  0  0  0
    3.7028    2.1510    0.0247 C   0  0  0  0  0  0
    2.3862    2.9026    0.0288 C   0  0  0  0  0  0
    4.8764    0.0088    0.0184 C   0  0  0  0  0  0
    6.1097    0.6907    0.0172 C   0  0  0  0  0  0
    6.1400    2.1002    0.0197 C   0  0  0  0  0  0
    4.9359    2.8326    0.0235 C   0  0  0  0  0  0
    0.1748    0.0287    0.0280 O   0  0  0  0  0  0
    0.3151    2.4689    0.0322 H   0  0  0  0  0  0
    2.4325   -0.9281    0.0216 H   0  0  0  0  0  0
    2.3402    3.5496   -0.8478 H   0  0  0  0  0  0
    2.3437    3.5464    0.9079 H   0  0  0  0  0  0
    4.8633   -1.0725    0.0165 H   0  0  0  0  0  0
    7.0348    0.1308    0.0143 H   0  0  0  0  0  0
    7.0885    2.6201    0.0188 H   0  0  0  0  0  0
    4.9612    3.9138    0.0254 H   0  0  0  0  0  0
  1  2  1  0  0  0
  1  6  1  0  0  0
  1 12  1  0  0  0
  2  3  1  0  0  0
  2 11  2  0  0  0
  3  4  1  0  0  0
  3 13  1  0  0  0
  4  5  2  0  0  0
  4  7  1  0  0  0
  5  6  1  0  0  0
  5 10  1  0  0  0
  6 14  1  0  0  0
  6 15  1  0  0  0
  7  8  2  0  0  0
  7 16  1  0  0  0
  8  9  1  0  0  0
  8 17  1  0  0  0
  9 10  2  0  0  0
  9 18  1  0  0  0
 10 19  1  0  0  0
M  END
> <s_m_entry_name>
Schrodinger_fragment_452

> <i_m_number_of_atoms>
19

> <r_m_molecular_weight>
148.16576

> <s_m_molecular_formula>
C8H8N2O1

> <r_epik_Ionization_Penalty>
  0.0000

> <r_epik_Ionization_Penalty_Charging>
  0.0000

> <r_epik_Ionization_Penalty_Neutral>
  0.0000

> <r_epik_State_Penalty>
  0.0000

> <i_epik_Tot_Q>
0

> <r_epik_Metal_State_Penalty>
  0.0000

> <b_epik_Metal_Only>
0

> <s_m_entry_id>
4894

> <s_canvas_Unique_SMILES_Stereo>
C1NC(=O)Nc(c12)cccc2

$$$$
Schrodinger_fragment_362
                    3D
 Structure written by MMmdl.
 22 23  0  0  1  0            999 V2000
    1.4119   -0.7718    0.0140 N   0  0  0  0  0  0
    1.4221   -2.1280   -0.0535 C   0  0  0  0  0  0
    2.6252   -2.7233   -0.0646 N   0  0  0  0  0  0
    3.8774   -2.0757   -0.0130 C   0  0  0  0  0  0
    3.9158   -0.6728    0.0576 C   0  0  0  0  0  0
    2.6059    0.0867    0.0752 C   0  0  0  0  0  0
    5.0742   -2.8196   -0.0316 C   0  0  0  0  0  0
    6.3122   -2.1484    0.0210 C   0  0  0  0  0  0
    6.3519   -0.7410    0.0918 C   0  0  0  0  0  0
    5.1529   -0.0007    0.1101 C   0  0  0  0  0  0
    0.3895   -2.8034   -0.1031 O   0  0  0  0  0  0
    0.1408   -0.0445    0.0306 C   0  0  0  0  0  0
    2.6239   -3.7312   -0.1148 H   0  0  0  0  0  0
    2.5944    0.7759   -0.7702 H   0  0  0  0  0  0
    2.5673    0.6884    0.9842 H   0  0  0  0  0  0
    5.0533   -3.8994   -0.0857 H   0  0  0  0  0  0
    7.2332   -2.7147    0.0070 H   0  0  0  0  0  0
    7.3037   -0.2287    0.1320 H   0  0  0  0  0  0
    5.1860    1.0789    0.1645 H   0  0  0  0  0  0
    0.2835    1.0354    0.0866 H   0  0  0  0  0  0
   -0.4603   -0.3429    0.8908 H   0  0  0  0  0  0
   -0.4331   -0.2550   -0.8732 H   0  0  0  0  0  0
  1  2  1  0  0  0
  1  6  1  0  0  0
  1 12  1  0  0  0
  2  3  1  0  0  0
  2 11  2  0  0  0
  3  4  1  0  0  0
  3 13  1  0  0  0
  4  5  2  0  0  0
  4  7  1  0  0  0
  5  6  1  0  0  0
  5 10  1  0  0  0
  6 14  1  0  0  0
  6 15  1  0  0  0
  7  8  2  0  0  0
  7 16  1  0  0  0
  8  9  1  0  0  0
  8 17  1  0  0  0
  9 10  2  0  0  0
  9 18  1  0  0  0
 10 19  1  0  0  0
 12 20  1  0  0  0
 12 21  1  0  0  0
 12 22  1  0  0  0
M  END
> <s_m_entry_name>
Schrodinger_fragment_453

> <i_m_number_of_atoms>
22

> <r_m_molecular_weight>
162.19285

> <s_m_molecular_formula>
C9H10N2O1

> <r_epik_Ionization_Penalty>
  0.0000

> <r_epik_Ionization_Penalty_Charging>
  0.0000

> <r_epik_Ionization_Penalty_Neutral>
  0.0000

> <r_epik_State_Penalty>
  0.0000

> <i_epik_Tot_Q>
0

> <r_epik_Metal_State_Penalty>
  0.0000

> <b_epik_Metal_Only>
0

> <s_m_entry_id>
4895

> <s_canvas_Unique_SMILES_Stereo>
CN(C1)C(=O)Nc(c12)cccc2

$$$$
Schrodinger_fragment_363
                    3D
 Structure written by MMmdl.
 25 26  0  0  1  0            999 V2000
    1.4152   -0.8196    0.0851 N   0  0  0  0  0  0
    1.3971   -2.1753    0.0074 C   0  0  0  0  0  0
    2.5968   -2.8288    0.0295 N   0  0  0  0  0  0
    3.8644   -2.1555   -0.0059 C   0  0  0  0  0  0
    3.9049   -0.7474    0.0473 C   0  0  0  0  0  0
    2.6116    0.0213    0.1318 C   0  0  0  0  0  0
    5.0908   -2.8629   -0.0948 C   0  0  0  0  0  0
    6.3184   -2.1728   -0.1228 C   0  0  0  0  0  0
    6.3408   -0.7678   -0.0638 C   0  0  0  0  0  0
    5.1319   -0.0545    0.0206 C   0  0  0  0  0  0
    0.3193   -2.7824   -0.0682 O   0  0  0  0  0  0
    0.1589   -0.0628    0.1055 C   0  0  0  0  0  0
    2.6011   -4.3039    0.0503 C   0  0  0  0  0  0
    2.5800    0.7368   -0.6913 H   0  0  0  0  0  0
    2.6094    0.5946    1.0600 H   0  0  0  0  0  0
    5.1229   -3.9412   -0.1469 H   0  0  0  0  0  0
    7.2456   -2.7249   -0.1906 H   0  0  0  0  0  0
    7.2837   -0.2382   -0.0853 H   0  0  0  0  0  0
    5.1487    1.0261    0.0633 H   0  0  0  0  0  0
    0.3219    1.0108    0.2086 H   0  0  0  0  0  0
   -0.4680   -0.3796    0.9405 H   0  0  0  0  0  0
   -0.3999   -0.2242   -0.8176 H   0  0  0  0  0  0
    3.2255   -4.6712    0.8654 H   0  0  0  0  0  0
    2.9952   -4.6930   -0.8892 H   0  0  0  0  0  0
    1.6238   -4.7653    0.1985 H   0  0  0  0  0  0
  1  2  1  0  0  0
  1  6  1  0  0  0
  1 12  1  0  0  0
  2  3  1  0  0  0
  2 11  2  0  0  0
  3  4  1  0  0  0
  3 13  1  0  0  0
  4  5  2  0  0  0
  4  7  1  0  0  0
  5  6  1  0  0  0
  5 10  1  0  0  0
  6 14  1  0  0  0
  6 15  1  0  0  0
  7  8  2  0  0  0
  7 16  1  0  0  0
  8  9  1  0  0  0
  8 17  1  0  0  0
  9 10  2  0  0  0
  9 18  1  0  0  0
 10 19  1  0  0  0
 12 20  1  0  0  0
 12 21  1  0  0  0
 12 22  1  0  0  0
 13 23  1  0  0  0
 13 24  1  0  0  0
 13 25  1  0  0  0
M  END
> <s_m_entry_name>
Schrodinger_fragment_454

> <i_m_number_of_atoms>
25

> <r_m_molecular_weight>
176.21994

> <s_m_molecular_formula>
C10H12N2O1

> <r_epik_Ionization_Penalty>
  0.0000

> <r_epik_Ionization_Penalty_Charging>
  0.0000

> <r_epik_Ionization_Penalty_Neutral>
  0.0000

> <r_epik_State_Penalty>
  0.0000

> <i_epik_Tot_Q>
0

> <r_epik_Metal_State_Penalty>
  0.0000

> <b_epik_Metal_Only>
0

> <s_m_entry_id>
4896

> <s_canvas_Unique_SMILES_Stereo>
CN(C1)C(=O)N(C)c(c12)cccc2

$$$$
Schrodinger_fragment_364
                    3D
 Structure written by MMmdl.
 22 23  0  0  1  0            999 V2000
    1.4466   -0.8636    0.1057 N   0  0  0  0  0  0
    1.4230   -2.2006    0.0991 C   0  0  0  0  0  0
    2.6206   -2.8527    0.0545 N   0  0  0  0  0  0
    3.8928   -2.1694    0.0148 C   0  0  0  0  0  0
    3.9120   -0.7542    0.0220 C   0  0  0  0  0  0
    2.6094    0.0064    0.0707 C   0  0  0  0  0  0
    5.1405   -2.8475   -0.0316 C   0  0  0  0  0  0
    6.3532   -2.1318   -0.0691 C   0  0  0  0  0  0
    6.3488   -0.7268   -0.0611 C   0  0  0  0  0  0
    5.1252   -0.0382   -0.0155 C   0  0  0  0  0  0
    0.3349   -2.7836    0.1330 O   0  0  0  0  0  0
    2.5366   -4.3266    0.0492 C   0  0  0  0  0  0
    0.5470   -0.4063    0.1389 H   0  0  0  0  0  0
    2.5393    0.6570   -0.8018 H   0  0  0  0  0  0
    2.5992    0.6472    0.9532 H   0  0  0  0  0  0
    5.2276   -3.9206   -0.0405 H   0  0  0  0  0  0
    7.2924   -2.6668   -0.1041 H   0  0  0  0  0  0
    7.2812   -0.1792   -0.0900 H   0  0  0  0  0  0
    5.1190    1.0433   -0.0093 H   0  0  0  0  0  0
    3.4734   -4.8698    0.0142 H   0  0  0  0  0  0
    1.9602   -4.6663   -0.8133 H   0  0  0  0  0  0
    2.0203   -4.6761    0.9452 H   0  0  0  0  0  0
  1  2  1  0  0  0
  1  6  1  0  0  0
  1 13  1  0  0  0
  2  3  1  0  0  0
  2 11  2  0  0  0
  3  4  1  0  0  0
  3 12  1  0  0  0
  4  5  2  0  0  0
  4  7  1  0  0  0
  5  6  1  0  0  0
  5 10  1  0  0  0
  6 14  1  0  0  0
  6 15  1  0  0  0
  7  8  2  0  0  0
  7 16  1  0  0  0
  8  9  1  0  0  0
  8 17  1  0  0  0
  9 10  2  0  0  0
  9 18  1  0  0  0
 10 19  1  0  0  0
 12 20  1  0  0  0
 12 21  1  0  0  0
 12 22  1  0  0  0
M  END
> <s_m_entry_name>
Schrodinger_fragment_455

> <i_m_number_of_atoms>
22

> <r_m_molecular_weight>
162.19285

> <s_m_molecular_formula>
C9H10N2O1

> <r_epik_Ionization_Penalty>
  0.0000

> <r_epik_Ionization_Penalty_Charging>
  0.0000

> <r_epik_Ionization_Penalty_Neutral>
  0.0000

> <r_epik_State_Penalty>
  0.0000

> <i_epik_Tot_Q>
0

> <r_epik_Metal_State_Penalty>
  0.0000

> <b_epik_Metal_Only>
0

> <s_m_entry_id>
4897

> <s_canvas_Unique_SMILES_Stereo>
C1NC(=O)N(C)c(c12)cccc2

$$$$
Schrodinger_fragment_365
                    3D
 Structure written by MMmdl.
 21 22  0  0  1  0            999 V2000
    3.8832   -2.2149    0.0220 C   0  0  0  0  0  0
    3.8687   -3.6190    0.0266 C   0  0  0  0  0  0
    5.0715   -4.3535    0.0266 C   0  0  0  0  0  0
    6.3017   -3.6669    0.0219 C   0  0  0  0  0  0
    6.3260   -2.2573    0.0172 C   0  0  0  0  0  0
    5.1183   -1.5293    0.0172 C   0  0  0  0  0  0
    2.5647   -1.4925    0.0222 C   0  0  0  0  0  0
    1.4362   -2.2597    0.0270 N   0  0  0  0  0  0
    1.4325   -3.6296    0.0316 C   0  0  0  0  0  0
    2.6191   -4.2650    0.0313 N   0  0  0  0  0  0
    2.5446   -0.2526    0.0182 O   0  0  0  0  0  0
    0.3982   -4.3029    0.0358 O   0  0  0  0  0  0
    0.1485   -1.5368    0.0272 C   0  0  0  0  0  0
    5.0607   -5.4349    0.0302 H   0  0  0  0  0  0
    7.2291   -4.2230    0.0219 H   0  0  0  0  0  0
    7.2726   -1.7336    0.0136 H   0  0  0  0  0  0
    5.1431   -0.4481    0.0136 H   0  0  0  0  0  0
    2.6035   -5.2761    0.0346 H   0  0  0  0  0  0
   -0.7349   -2.1760    0.0312 H   0  0  0  0  0  0
    0.0690   -0.9013   -0.8564 H   0  0  0  0  0  0
    0.0725   -0.8954    0.9070 H   0  0  0  0  0  0
  1  2  2  0  0  0
  1  6  1  0  0  0
  1  7  1  0  0  0
  2  3  1  0  0  0
  2 10  1  0  0  0
  3  4  2  0  0  0
  3 14  1  0  0  0
  4  5  1  0  0  0
  4 15  1  0  0  0
  5  6  2  0  0  0
  5 16  1  0  0  0
  6 17  1  0  0  0
  7  8  1  0  0  0
  7 11  2  0  0  0
  8  9  1  0  0  0
  8 13  1  0  0  0
  9 10  1  0  0  0
  9 12  2  0  0  0
 10 18  1  0  0  0
 13 19  1  0  0  0
 13 20  1  0  0  0
 13 21  1  0  0  0
M  END
> <s_m_entry_name>
Schrodinger_fragment_456

> <i_m_number_of_atoms>
21

> <r_m_molecular_weight>
176.17631

> <s_m_molecular_formula>
C9H8N2O2

> <r_epik_Ionization_Penalty>
  0.0047

> <r_epik_Ionization_Penalty_Charging>
  0.0047

> <r_epik_Ionization_Penalty_Neutral>
  0.0000

> <r_epik_State_Penalty>
  0.0000

> <i_epik_Tot_Q>
0

> <r_epik_Metal_State_Penalty>
  1.2981

> <b_epik_Metal_Only>
0

> <s_m_entry_id>
4898

> <s_canvas_Unique_SMILES_Stereo>
O=c1n(C)c(=O)[nH]c(c12)cccc2

$$$$
Schrodinger_fragment_365_a
                    3D
 Structure written by MMmdl.
 20 21  0  0  1  0            999 V2000
    3.8758   -2.2198    0.0220 C   0  0  0  0  0  0
    3.8547   -3.6296    0.0267 C   0  0  0  0  0  0
    5.0708   -4.3439    0.0266 C   0  0  0  0  0  0
    6.2993   -3.6544    0.0219 C   0  0  0  0  0  0
    6.3191   -2.2465    0.0172 C   0  0  0  0  0  0
    5.1077   -1.5280    0.0172 C   0  0  0  0  0  0
    2.5639   -1.4927    0.0222 C   0  0  0  0  0  0
    1.4434   -2.2668    0.0270 N   0  0  0  0  0  0
    1.5172   -3.6948    0.0316 C   0  0  0  0  0  0
    2.6455   -4.3331    0.0314 N   0  0  0  0  0  0
    2.5398   -0.2551    0.0182 O   0  0  0  0  0  0
    0.3913   -4.2094    0.0355 O   0  5  0  0  0  0
    0.1484   -1.5357    0.0272 C   0  0  0  0  0  0
    5.0705   -5.4258    0.0302 H   0  0  0  0  0  0
    7.2282   -4.2080    0.0218 H   0  0  0  0  0  0
    7.2628   -1.7178    0.0135 H   0  0  0  0  0  0
    5.1262   -0.4468    0.0136 H   0  0  0  0  0  0
   -0.7622   -2.1337    0.0311 H   0  0  0  0  0  0
    0.0832   -0.8958   -0.8542 H   0  0  0  0  0  0
    0.0868   -0.8899    0.9047 H   0  0  0  0  0  0
  1  2  2  0  0  0
  1  6  1  0  0  0
  1  7  1  0  0  0
  2  3  1  0  0  0
  2 10  1  0  0  0
  3  4  2  0  0  0
  3 14  1  0  0  0
  4  5  1  0  0  0
  4 15  1  0  0  0
  5  6  2  0  0  0
  5 16  1  0  0  0
  6 17  1  0  0  0
  7  8  1  0  0  0
  7 11  2  0  0  0
  8  9  1  0  0  0
  8 13  1  0  0  0
  9 10  2  0  0  0
  9 12  1  0  0  0
 13 18  1  0  0  0
 13 19  1  0  0  0
 13 20  1  0  0  0
M  CHG  1  12  -1
M  END
> <s_m_entry_name>
Schrodinger_fragment_456

> <i_m_number_of_atoms>
21

> <r_m_molecular_weight>
176.17631

> <s_m_molecular_formula>
C9H8N2O2

> <r_epik_Ionization_Penalty>
  2.8696

> <r_epik_Ionization_Penalty_Charging>
  0.0000

> <r_epik_Ionization_Penalty_Neutral>
  2.8696

> <r_epik_State_Penalty>
  2.8649

> <i_epik_Tot_Q>
-1

> <r_epik_Metal_State_Penalty>
  0.0703

> <b_epik_Metal_Only>
1

> <s_m_entry_id>
4899

> <s_canvas_Unique_SMILES_Stereo>
O=c1n(C)c([O-])nc(c12)cccc2

$$$$
Schrodinger_fragment_366
                    3D
 Structure written by MMmdl.
 24 25  0  0  1  0            999 V2000
    3.8787   -2.2329    0.0134 C   0  0  0  0  0  0
    3.8658   -3.6401    0.0300 C   0  0  0  0  0  0
    5.0991   -4.3407    0.0321 C   0  0  0  0  0  0
    6.3193   -3.6381    0.0183 C   0  0  0  0  0  0
    6.3242   -2.2318    0.0021 C   0  0  0  0  0  0
    5.1048   -1.5294   -0.0004 C   0  0  0  0  0  0
    2.5685   -1.5071    0.0106 C   0  0  0  0  0  0
    1.4380   -2.2610    0.0202 N   0  0  0  0  0  0
    1.4153   -3.6300    0.0344 C   0  0  0  0  0  0
    2.6029   -4.3108    0.0437 N   0  0  0  0  0  0
    2.5571   -0.2673   -0.0013 O   0  0  0  0  0  0
    0.3400   -4.2441    0.0390 O   0  0  0  0  0  0
    0.1618   -1.5116    0.0136 C   0  0  0  0  0  0
    2.6020   -5.7854    0.0658 C   0  0  0  0  0  0
    5.1400   -5.4200    0.0440 H   0  0  0  0  0  0
    7.2543   -4.1813    0.0200 H   0  0  0  0  0  0
    7.2618   -1.6924   -0.0086 H   0  0  0  0  0  0
    5.1152   -0.4479   -0.0131 H   0  0  0  0  0  0
   -0.7391   -2.1255    0.0288 H   0  0  0  0  0  0
    0.0928   -0.8863   -0.8783 H   0  0  0  0  0  0
    0.1006   -0.8561    0.8842 H   0  0  0  0  0  0
    1.6155   -6.2499    0.0846 H   0  0  0  0  0  0
    3.1266   -6.1500    0.9498 H   0  0  0  0  0  0
    3.1072   -6.1763   -0.8182 H   0  0  0  0  0  0
  1  2  2  0  0  0
  1  6  1  0  0  0
  1  7  1  0  0  0
  2  3  1  0  0  0
  2 10  1  0  0  0
  3  4  2  0  0  0
  3 15  1  0  0  0
  4  5  1  0  0  0
  4 16  1  0  0  0
  5  6  2  0  0  0
  5 17  1  0  0  0
  6 18  1  0  0  0
  7  8  1  0  0  0
  7 11  2  0  0  0
  8  9  1  0  0  0
  8 13  1  0  0  0
  9 10  1  0  0  0
  9 12  2  0  0  0
 10 14  1  0  0  0
 13 19  1  0  0  0
 13 20  1  0  0  0
 13 21  1  0  0  0
 14 22  1  0  0  0
 14 23  1  0  0  0
 14 24  1  0  0  0
M  END
> <s_m_entry_name>
Schrodinger_fragment_457

> <i_m_number_of_atoms>
24

> <r_m_molecular_weight>
190.2034

> <s_m_molecular_formula>
C10H10N2O2

> <r_epik_Ionization_Penalty>
  0.0000

> <r_epik_Ionization_Penalty_Charging>
  0.0000

> <r_epik_Ionization_Penalty_Neutral>
  0.0000

> <r_epik_State_Penalty>
  0.0000

> <i_epik_Tot_Q>
0

> <r_epik_Metal_State_Penalty>
  0.0000

> <b_epik_Metal_Only>
0

> <s_m_entry_id>
4900

> <s_canvas_Unique_SMILES_Stereo>
O=c1n(C)c(=O)n(C)c(c12)cccc2

$$$$
Schrodinger_fragment_367
                    3D
 Structure written by MMmdl.
 21 22  0  0  1  0            999 V2000
    3.8737   -2.2241    0.0214 C   0  0  0  0  0  0
    3.8582   -3.6360    0.0252 C   0  0  0  0  0  0
    5.0903   -4.3370    0.0256 C   0  0  0  0  0  0
    6.3103   -3.6331    0.0223 C   0  0  0  0  0  0
    6.3164   -2.2260    0.0186 C   0  0  0  0  0  0
    5.0983   -1.5207    0.0181 C   0  0  0  0  0  0
    2.5608   -1.5022    0.0210 C   0  0  0  0  0  0
    1.4670   -2.2744    0.0243 N   0  0  0  0  0  0
    1.4108   -3.6192    0.0280 C   0  0  0  0  0  0
    2.5908   -4.3093    0.0284 N   0  0  0  0  0  0
    2.4991   -0.2681    0.0178 O   0  0  0  0  0  0
    0.3085   -4.1749    0.0307 O   0  0  0  0  0  0
    2.5744   -5.7810    0.0323 C   0  0  0  0  0  0
    5.1277   -5.4166    0.0284 H   0  0  0  0  0  0
    7.2453   -4.1764    0.0227 H   0  0  0  0  0  0
    7.2549   -1.6879    0.0160 H   0  0  0  0  0  0
    5.1063   -0.4391    0.0152 H   0  0  0  0  0  0
    0.5842   -1.7927    0.0241 H   0  0  0  0  0  0
    1.5783   -6.2256    0.0347 H   0  0  0  0  0  0
    3.0857   -6.1623    0.9170 H   0  0  0  0  0  0
    3.0836   -6.1670   -0.8515 H   0  0  0  0  0  0
  1  2  1  0  0  0
  1  6  2  0  0  0
  1  7  1  0  0  0
  2  3  2  0  0  0
  2 10  1  0  0  0
  3  4  1  0  0  0
  3 14  1  0  0  0
  4  5  2  0  0  0
  4 15  1  0  0  0
  5  6  1  0  0  0
  5 16  1  0  0  0
  6 17  1  0  0  0
  7  8  1  0  0  0
  7 11  2  0  0  0
  8  9  1  0  0  0
  8 18  1  0  0  0
  9 10  1  0  0  0
  9 12  2  0  0  0
 10 13  1  0  0  0
 13 19  1  0  0  0
 13 20  1  0  0  0
 13 21  1  0  0  0
M  END
> <s_m_entry_name>
Schrodinger_fragment_458

> <i_m_number_of_atoms>
21

> <r_m_molecular_weight>
176.17631

> <s_m_molecular_formula>
C9H8N2O2

> <r_epik_Ionization_Penalty>
  0.0011

> <r_epik_Ionization_Penalty_Charging>
  0.0011

> <r_epik_Ionization_Penalty_Neutral>
  0.0000

> <r_epik_State_Penalty>
  0.0000

> <i_epik_Tot_Q>
0

> <r_epik_Metal_State_Penalty>
  0.6089

> <b_epik_Metal_Only>
0

> <s_m_entry_id>
4901

> <s_canvas_Unique_SMILES_Stereo>
O=c1[nH]c(=O)n(C)c(c12)cccc2

$$$$
Schrodinger_fragment_367_a
                    3D
 Structure written by MMmdl.
 20 21  0  0  1  0            999 V2000
    3.8688   -2.2210    0.0214 C   0  0  0  0  0  0
    3.8559   -3.6358    0.0252 C   0  0  0  0  0  0
    5.0872   -4.3389    0.0256 C   0  0  0  0  0  0
    6.3089   -3.6391    0.0223 C   0  0  0  0  0  0
    6.3173   -2.2329    0.0186 C   0  0  0  0  0  0
    5.1003   -1.5262    0.0181 C   0  0  0  0  0  0
    2.5613   -1.4750    0.0209 C   0  0  0  0  0  0
    1.4438   -2.2430    0.0243 N   0  5  0  0  0  0
    1.4255   -3.6012    0.0279 C   0  0  0  0  0  0
    2.5903   -4.3102    0.0284 N   0  0  0  0  0  0
    2.5585   -0.2394    0.0176 O   0  0  0  0  0  0
    0.3464   -4.1996    0.0307 O   0  0  0  0  0  0
    2.5799   -5.7842    0.0323 C   0  0  0  0  0  0
    5.1237   -5.4184    0.0284 H   0  0  0  0  0  0
    7.2425   -4.1846    0.0227 H   0  0  0  0  0  0
    7.2564   -1.6960    0.0161 H   0  0  0  0  0  0
    5.1127   -0.4450    0.0152 H   0  0  0  0  0  0
    1.5879   -6.2367    0.0347 H   0  0  0  0  0  0
    3.0931   -6.1616    0.9173 H   0  0  0  0  0  0
    3.0911   -6.1663   -0.8518 H   0  0  0  0  0  0
  1  2  1  0  0  0
  1  6  2  0  0  0
  1  7  1  0  0  0
  2  3  2  0  0  0
  2 10  1  0  0  0
  3  4  1  0  0  0
  3 14  1  0  0  0
  4  5  2  0  0  0
  4 15  1  0  0  0
  5  6  1  0  0  0
  5 16  1  0  0  0
  6 17  1  0  0  0
  7  8  1  0  0  0
  7 11  2  0  0  0
  8  9  1  0  0  0
  9 10  1  0  0  0
  9 12  2  0  0  0
 10 13  1  0  0  0
 13 18  1  0  0  0
 13 19  1  0  0  0
 13 20  1  0  0  0
M  CHG  1   8  -1
M  END
> <s_m_entry_name>
Schrodinger_fragment_458

> <i_m_number_of_atoms>
21

> <r_m_molecular_weight>
176.17631

> <s_m_molecular_formula>
C9H8N2O2

> <r_epik_Ionization_Penalty>
  3.7473

> <r_epik_Ionization_Penalty_Charging>
  0.0000

> <r_epik_Ionization_Penalty_Neutral>
  3.7473

> <r_epik_State_Penalty>
  3.7462

> <i_epik_Tot_Q>
-1

> <r_epik_Metal_State_Penalty>
  0.2624

> <b_epik_Metal_Only>
1

> <s_m_entry_id>
4902

> <s_canvas_Unique_SMILES_Stereo>
O=c1[n-]c(=O)n(C)c(c12)cccc2

$$$$
Schrodinger_fragment_368
                    3D
 Structure written by MMmdl.
 18 19  0  0  1  0            999 V2000
    3.6392    2.1397    0.0200 C   0  0  0  0  0  0
    3.6392    0.7258    0.0276 C   0  0  0  0  0  0
    4.8576    0.0184    0.0317 C   0  0  0  0  0  0
    6.0753    0.7277    0.0281 C   0  0  0  0  0  0
    6.0754    2.1377    0.0206 C   0  0  0  0  0  0
    4.8576    2.8471    0.0165 C   0  0  0  0  0  0
    2.4023    2.8290    0.0160 N   0  0  0  0  0  0
    1.2025    2.2207    0.0190 C   0  0  0  0  0  0
    1.2024    0.6449    0.0275 C   0  0  0  0  0  0
    2.4022    0.0366    0.0310 N   0  0  0  0  0  0
    0.1394    2.8508    0.0154 O   0  0  0  0  0  0
    0.1393    0.0148    0.0306 O   0  0  0  0  0  0
    4.8678   -1.0627    0.0375 H   0  0  0  0  0  0
    7.0126    0.1883    0.0313 H   0  0  0  0  0  0
    7.0127    2.6772    0.0179 H   0  0  0  0  0  0
    4.8678    3.9282    0.0107 H   0  0  0  0  0  0
    2.4187    3.8370    0.0106 H   0  0  0  0  0  0
    2.4186   -0.9715    0.0365 H   0  0  0  0  0  0
  1  2  2  0  0  0
  1  6  1  0  0  0
  1  7  1  0  0  0
  2  3  1  0  0  0
  2 10  1  0  0  0
  3  4  2  0  0  0
  3 13  1  0  0  0
  4  5  1  0  0  0
  4 14  1  0  0  0
  5  6  2  0  0  0
  5 15  1  0  0  0
  6 16  1  0  0  0
  7  8  1  0  0  0
  7 17  1  0  0  0
  8  9  1  0  0  0
  8 11  2  0  0  0
  9 10  1  0  0  0
  9 12  2  0  0  0
 10 18  1  0  0  0
M  END
> <s_m_entry_name>
Schrodinger_fragment_459

> <i_m_number_of_atoms>
18

> <r_m_molecular_weight>
162.14922

> <s_m_molecular_formula>
C8H6N2O2

> <r_epik_Ionization_Penalty>
  0.0005

> <r_epik_Ionization_Penalty_Charging>
  0.0005

> <r_epik_Ionization_Penalty_Neutral>
  0.0000

> <r_epik_State_Penalty>
  0.0000

> <i_epik_Tot_Q>
0

> <r_epik_Metal_State_Penalty>
  0.1990

> <b_epik_Metal_Only>
0

> <s_m_entry_id>
4903

> <s_canvas_Unique_SMILES_Stereo>
[nH]1c(=O)c(=O)[nH]c(c12)cccc2

$$$$
Schrodinger_fragment_368_a
                    3D
 Structure written by MMmdl.
 17 18  0  0  1  0            999 V2000
    3.6195    2.1396    0.0200 C   0  0  0  0  0  0
    3.6359    0.7220    0.0276 C   0  0  0  0  0  0
    4.8534    0.0132    0.0317 C   0  0  0  0  0  0
    6.0699    0.7232    0.0282 C   0  0  0  0  0  0
    6.0638    2.1326    0.0206 C   0  0  0  0  0  0
    4.8433    2.8387    0.0165 C   0  0  0  0  0  0
    2.4054    2.8507    0.0159 N   0  0  0  0  0  0
    1.2964    2.2132    0.0191 C   0  0  0  0  0  0
    1.2030    0.6584    0.0274 C   0  0  0  0  0  0
    2.3974    0.0390    0.0310 N   0  0  0  0  0  0
    0.1813    2.7525    0.0159 O   0  5  0  0  0  0
    0.1350    0.0336    0.0305 O   0  0  0  0  0  0
    4.8633   -1.0678    0.0375 H   0  0  0  0  0  0
    7.0085    0.1862    0.0313 H   0  0  0  0  0  0
    6.9989    2.6758    0.0179 H   0  0  0  0  0  0
    4.8587    3.9203    0.0107 H   0  0  0  0  0  0
    2.4076   -0.9684    0.0364 H   0  0  0  0  0  0
  1  2  2  0  0  0
  1  6  1  0  0  0
  1  7  1  0  0  0
  2  3  1  0  0  0
  2 10  1  0  0  0
  3  4  2  0  0  0
  3 13  1  0  0  0
  4  5  1  0  0  0
  4 14  1  0  0  0
  5  6  2  0  0  0
  5 15  1  0  0  0
  6 16  1  0  0  0
  7  8  2  0  0  0
  8  9  1  0  0  0
  8 11  1  0  0  0
  9 10  1  0  0  0
  9 12  2  0  0  0
 10 17  1  0  0  0
M  CHG  1  11  -1
M  END
> <s_m_entry_name>
Schrodinger_fragment_459

> <i_m_number_of_atoms>
18

> <r_m_molecular_weight>
162.14922

> <s_m_molecular_formula>
C8H6N2O2

> <r_epik_Ionization_Penalty>
  4.7256

> <r_epik_Ionization_Penalty_Charging>
  0.0883

> <r_epik_Ionization_Penalty_Neutral>
  4.6373

> <r_epik_State_Penalty>
  4.6370

> <i_epik_Tot_Q>
-1

> <r_epik_Metal_State_Penalty>
  0.7432

> <b_epik_Metal_Only>
1

> <s_m_entry_id>
4904

> <s_canvas_Unique_SMILES_Stereo>
n1c([O-])c(=O)[nH]c(c12)cccc2

$$$$
Schrodinger_fragment_369
                    3D
 Structure written by MMmdl.
 21 22  0  0  1  0            999 V2000
    3.8321   -1.2406    0.0174 C   0  0  0  0  0  0
    3.8418   -2.6574    0.0273 C   0  0  0  0  0  0
    5.0544   -3.3742   -0.0065 C   0  0  0  0  0  0
    6.2770   -2.6802   -0.0509 C   0  0  0  0  0  0
    6.2850   -1.2732   -0.0613 C   0  0  0  0  0  0
    5.0727   -0.5565   -0.0275 C   0  0  0  0  0  0
    2.5760   -0.5402    0.0528 N   0  0  0  0  0  0
    1.3836   -1.2003    0.0960 C   0  0  0  0  0  0
    1.4181   -2.7728    0.1062 C   0  0  0  0  0  0
    2.6215   -3.3609    0.0717 N   0  0  0  0  0  0
    0.2798   -0.6354    0.1274 O   0  0  0  0  0  0
    0.3688   -3.4272    0.1447 O   0  0  0  0  0  0
    2.5867    0.9320    0.0418 C   0  0  0  0  0  0
    5.0564   -4.4556    0.0012 H   0  0  0  0  0  0
    7.2092   -3.2276   -0.0769 H   0  0  0  0  0  0
    7.2253   -0.7399   -0.0954 H   0  0  0  0  0  0
    5.1245    0.5224   -0.0369 H   0  0  0  0  0  0
    2.6519   -4.3693    0.0780 H   0  0  0  0  0  0
    1.5990    1.3934    0.0703 H   0  0  0  0  0  0
    3.0749    1.2988   -0.8615 H   0  0  0  0  0  0
    3.1318    1.3115    0.9064 H   0  0  0  0  0  0
  1  2  2  0  0  0
  1  6  1  0  0  0
  1  7  1  0  0  0
  2  3  1  0  0  0
  2 10  1  0  0  0
  3  4  2  0  0  0
  3 14  1  0  0  0
  4  5  1  0  0  0
  4 15  1  0  0  0
  5  6  2  0  0  0
  5 16  1  0  0  0
  6 17  1  0  0  0
  7  8  1  0  0  0
  7 13  1  0  0  0
  8  9  1  0  0  0
  8 11  2  0  0  0
  9 10  1  0  0  0
  9 12  2  0  0  0
 10 18  1  0  0  0
 13 19  1  0  0  0
 13 20  1  0  0  0
 13 21  1  0  0  0
M  END
> <s_m_entry_name>
Schrodinger_fragment_460

> <i_m_number_of_atoms>
21

> <r_m_molecular_weight>
176.17631

> <s_m_molecular_formula>
C9H8N2O2

> <r_epik_Ionization_Penalty>
  0.0000

> <r_epik_Ionization_Penalty_Charging>
  0.0000

> <r_epik_Ionization_Penalty_Neutral>
  0.0000

> <r_epik_State_Penalty>
  0.0000

> <i_epik_Tot_Q>
0

> <r_epik_Metal_State_Penalty>
  0.0155

> <b_epik_Metal_Only>
0

> <s_m_entry_id>
4905

> <s_canvas_Unique_SMILES_Stereo>
Cn1c(=O)c(=O)[nH]c(c12)cccc2

$$$$
Schrodinger_fragment_369_a
                    3D
 Structure written by MMmdl.
 20 21  0  0  1  0            999 V2000
    3.8307   -1.2386    0.0175 C   0  0  0  0  0  0
    3.8240   -2.6581    0.0279 C   0  0  0  0  0  0
    5.0416   -3.3674   -0.0061 C   0  0  0  0  0  0
    6.2671   -2.6769   -0.0506 C   0  0  0  0  0  0
    6.2814   -1.2706   -0.0612 C   0  0  0  0  0  0
    5.0705   -0.5533   -0.0274 C   0  0  0  0  0  0
    2.5744   -0.5427    0.0529 N   0  0  0  0  0  0
    1.3861   -1.2113    0.0960 C   0  0  0  0  0  0
    1.5127   -2.7617    0.1031 C   0  0  0  0  0  0
    2.6259   -3.3807    0.0717 N   0  0  0  0  0  0
    0.2792   -0.6483    0.1275 O   0  0  0  0  0  0
    0.4113   -3.3301    0.1427 O   0  5  0  0  0  0
    2.5795    0.9298    0.0421 C   0  0  0  0  0  0
    5.0480   -4.4493    0.0015 H   0  0  0  0  0  0
    7.1969   -3.2283   -0.0765 H   0  0  0  0  0  0
    7.2231   -0.7398   -0.0954 H   0  0  0  0  0  0
    5.1211    0.5256   -0.0368 H   0  0  0  0  0  0
    1.5897    1.3864    0.0706 H   0  0  0  0  0  0
    3.0661    1.2981   -0.8613 H   0  0  0  0  0  0
    3.1230    1.3109    0.9068 H   0  0  0  0  0  0
  1  2  2  0  0  0
  1  6  1  0  0  0
  1  7  1  0  0  0
  2  3  1  0  0  0
  2 10  1  0  0  0
  3  4  2  0  0  0
  3 14  1  0  0  0
  4  5  1  0  0  0
  4 15  1  0  0  0
  5  6  2  0  0  0
  5 16  1  0  0  0
  6 17  1  0  0  0
  7  8  1  0  0  0
  7 13  1  0  0  0
  8  9  1  0  0  0
  8 11  2  0  0  0
  9 10  2  0  0  0
  9 12  1  0  0  0
 13 18  1  0  0  0
 13 19  1  0  0  0
 13 20  1  0  0  0
M  CHG  1  12  -1
M  END
> <s_m_entry_name>
Schrodinger_fragment_460

> <i_m_number_of_atoms>
21

> <r_m_molecular_weight>
176.17631

> <s_m_molecular_formula>
C9H8N2O2

> <r_epik_Ionization_Penalty>
  6.3601

> <r_epik_Ionization_Penalty_Charging>
  0.1172

> <r_epik_Ionization_Penalty_Neutral>
  6.2429

> <r_epik_State_Penalty>
  6.2429

> <i_epik_Tot_Q>
-1

> <r_epik_Metal_State_Penalty>
  2.1657

> <b_epik_Metal_Only>
1

> <s_m_entry_id>
4906

> <s_canvas_Unique_SMILES_Stereo>
n1c([O-])c(=O)n(C)c(c12)cccc2

$$$$
Schrodinger_fragment_370
                    3D
 Structure written by MMmdl.
 24 25  0  0  1  0            999 V2000
    3.8279   -2.1814    0.0339 C   0  0  0  0  0  0
    3.8291   -3.6026    0.0338 C   0  0  0  0  0  0
    5.0679   -4.2934    0.0652 C   0  0  0  0  0  0
    6.2853   -3.5916    0.0961 C   0  0  0  0  0  0
    6.2842   -2.1884    0.0962 C   0  0  0  0  0  0
    5.0657   -1.4886    0.0653 C   0  0  0  0  0  0
    2.5846   -1.4670    0.0024 N   0  0  0  0  0  0
    1.3878   -2.1095   -0.0280 C   0  0  0  0  0  0
    1.3891   -3.6785   -0.0281 C   0  0  0  0  0  0
    2.5869   -4.3191    0.0022 N   0  0  0  0  0  0
    0.2936   -1.5227   -0.0558 O   0  0  0  0  0  0
    0.2958   -4.2670   -0.0559 O   0  0  0  0  0  0
    2.6085    0.0066    0.0030 C   0  0  0  0  0  0
    2.6132   -5.7925    0.0028 C   0  0  0  0  0  0
    5.1189   -5.3723    0.0664 H   0  0  0  0  0  0
    7.2217   -4.1323    0.1198 H   0  0  0  0  0  0
    7.2196   -1.6462    0.1199 H   0  0  0  0  0  0
    5.1148   -0.4096    0.0666 H   0  0  0  0  0  0
    1.6267    0.4804   -0.0218 H   0  0  0  0  0  0
    3.1501    0.3758   -0.8683 H   0  0  0  0  0  0
    3.1052    0.3757    0.9008 H   0  0  0  0  0  0
    1.6321   -6.2680   -0.0221 H   0  0  0  0  0  0
    3.1105   -6.1609    0.9005 H   0  0  0  0  0  0
    3.1554   -6.1608   -0.8685 H   0  0  0  0  0  0
  1  2  2  0  0  0
  1  6  1  0  0  0
  1  7  1  0  0  0
  2  3  1  0  0  0
  2 10  1  0  0  0
  3  4  2  0  0  0
  3 15  1  0  0  0
  4  5  1  0  0  0
  4 16  1  0  0  0
  5  6  2  0  0  0
  5 17  1  0  0  0
  6 18  1  0  0  0
  7  8  1  0  0  0
  7 13  1  0  0  0
  8  9  1  0  0  0
  8 11  2  0  0  0
  9 10  1  0  0  0
  9 12  2  0  0  0
 10 14  1  0  0  0
 13 19  1  0  0  0
 13 20  1  0  0  0
 13 21  1  0  0  0
 14 22  1  0  0  0
 14 23  1  0  0  0
 14 24  1  0  0  0
M  END
> <s_m_entry_name>
Schrodinger_fragment_461

> <i_m_number_of_atoms>
24

> <r_m_molecular_weight>
190.2034

> <s_m_molecular_formula>
C10H10N2O2

> <r_epik_Ionization_Penalty>
  0.0000

> <r_epik_Ionization_Penalty_Charging>
  0.0000

> <r_epik_Ionization_Penalty_Neutral>
  0.0000

> <r_epik_State_Penalty>
  0.0000

> <i_epik_Tot_Q>
0

> <r_epik_Metal_State_Penalty>
  0.0000

> <b_epik_Metal_Only>
0

> <s_m_entry_id>
4907

> <s_canvas_Unique_SMILES_Stereo>
Cn1c(=O)c(=O)n(C)c(c12)cccc2

$$$$
Schrodinger_fragment_371
                    3D
 Structure written by MMmdl.
 20 21  0  0  1  0            999 V2000
    5.0369    1.9831   -0.1641 C   0  0  0  0  0  0
    4.9336    0.5777   -0.1482 C   0  0  0  0  0  0
    3.6721   -0.0436   -0.0386 C   0  0  0  0  0  0
    2.4975    0.7344    0.0528 C   0  0  0  0  0  0
    2.6155    2.1475    0.0319 C   0  0  0  0  0  0
    3.8733    2.7719   -0.0708 C   0  0  0  0  0  0
    1.2994    0.1120    0.1616 N   0  0  0  0  0  0
   -0.0139    0.7351    0.0327 C   0  0  0  0  0  0
    0.0287    2.0004    0.7583 N   0  0  0  0  0  0
    1.1435    3.1547    0.1723 S   0  0  0  0  0  0
    0.6965    3.5605   -1.1715 O   0  0  0  0  0  0
    1.3223    4.1649    1.2298 O   0  0  0  0  0  0
    6.0066    2.4551   -0.2451 H   0  0  0  0  0  0
    5.8262   -0.0287   -0.2179 H   0  0  0  0  0  0
    3.6193   -1.1233   -0.0249 H   0  0  0  0  0  0
    3.9348    3.8502   -0.0765 H   0  0  0  0  0  0
    1.3076   -0.9022    0.0737 H   0  0  0  0  0  0
   -0.2625    0.9075   -1.0172 H   0  0  0  0  0  0
   -0.7848    0.0890    0.4570 H   0  0  0  0  0  0
   -0.8986    2.4284    0.8249 H   0  0  0  0  0  0
  1  2  2  0  0  0
  1  6  1  0  0  0
  1 13  1  0  0  0
  2  3  1  0  0  0
  2 14  1  0  0  0
  3  4  2  0  0  0
  3 15  1  0  0  0
  4  5  1  0  0  0
  4  7  1  0  0  0
  5  6  2  0  0  0
  5 10  1  0  0  0
  6 16  1  0  0  0
  7  8  1  0  0  0
  7 17  1  0  0  0
  8  9  1  0  0  0
  8 18  1  0  0  0
  8 19  1  0  0  0
  9 10  1  0  0  0
  9 20  1  0  0  0
 10 11  2  0  0  0
 10 12  2  0  0  0
M  END
> <s_m_entry_name>
Schrodinger_fragment_462

> <i_m_number_of_atoms>
20

> <r_m_molecular_weight>
184.21801

> <s_m_molecular_formula>
C7H8N2O2S1

> <r_epik_Ionization_Penalty>
  0.0022

> <r_epik_Ionization_Penalty_Charging>
  0.0000

> <r_epik_Ionization_Penalty_Neutral>
  0.0022

> <r_epik_State_Penalty>
  0.0000

> <i_epik_Tot_Q>
0

> <r_epik_Metal_State_Penalty>
  0.9164

> <b_epik_Metal_Only>
0

> <s_m_entry_id>
4908

> <s_canvas_Unique_SMILES_Stereo>
N1CNS(=O)(=O)c(c12)cccc2

$$$$
Schrodinger_fragment_371_a
                    3D
 Structure written by MMmdl.
 19 20  0  0  1  0            999 V2000
    5.0307    1.9892   -0.1040 C   0  0  0  0  0  0
    4.9241    0.5837   -0.1032 C   0  0  0  0  0  0
    3.6589   -0.0376   -0.0490 C   0  0  0  0  0  0
    2.4827    0.7434    0.0018 C   0  0  0  0  0  0
    2.6040    2.1545   -0.0047 C   0  0  0  0  0  0
    3.8659    2.7803   -0.0527 C   0  0  0  0  0  0
    1.2727    0.1377    0.0671 N   0  0  0  0  0  0
   -0.0395    0.7569   -0.0207 C   0  0  0  0  0  0
    0.0736    2.0360    0.6458 N   0  5  0  0  0  0
    1.1032    3.1395    0.0592 S   0  0  0  0  0  0
    0.7898    3.5708   -1.3175 O   0  0  0  0  0  0
    1.3318    4.2167    1.0420 O   0  0  0  0  0  0
    6.0049    2.4585   -0.1432 H   0  0  0  0  0  0
    5.8178   -0.0233   -0.1414 H   0  0  0  0  0  0
    3.6050   -1.1180   -0.0441 H   0  0  0  0  0  0
    3.9264    3.8602   -0.0516 H   0  0  0  0  0  0
    1.2530   -0.8759   -0.0167 H   0  0  0  0  0  0
   -0.3460    0.8326   -1.0600 H   0  0  0  0  0  0
   -0.7535    0.1079    0.4816 H   0  0  0  0  0  0
  1  2  2  0  0  0
  1  6  1  0  0  0
  1 13  1  0  0  0
  2  3  1  0  0  0
  2 14  1  0  0  0
  3  4  2  0  0  0
  3 15  1  0  0  0
  4  5  1  0  0  0
  4  7  1  0  0  0
  5  6  2  0  0  0
  5 10  1  0  0  0
  6 16  1  0  0  0
  7  8  1  0  0  0
  7 17  1  0  0  0
  8  9  1  0  0  0
  8 18  1  0  0  0
  8 19  1  0  0  0
  9 10  1  0  0  0
 10 11  2  0  0  0
 10 12  2  0  0  0
M  CHG  1   9  -1
M  END
> <s_m_entry_name>
Schrodinger_fragment_462

> <i_m_number_of_atoms>
20

> <r_m_molecular_weight>
184.21801

> <s_m_molecular_formula>
C7H8N2O2S1

> <r_epik_Ionization_Penalty>
  3.7183

> <r_epik_Ionization_Penalty_Charging>
  3.3204

> <r_epik_Ionization_Penalty_Neutral>
  0.3979

> <r_epik_State_Penalty>
  3.3182

> <i_epik_Tot_Q>
-1

> <r_epik_Metal_State_Penalty>
  0.1419

> <b_epik_Metal_Only>
1

> <s_m_entry_id>
4909

> <s_canvas_Unique_SMILES_Stereo>
N1C[N-]S(=O)(=O)c(c12)cccc2

$$$$
Schrodinger_fragment_372
                    3D
 Structure written by MMmdl.
 23 24  0  0  1  0            999 V2000
    5.5329   -2.0276    0.1412 C   0  0  0  0  0  0
    5.3646   -3.4262    0.1829 C   0  0  0  0  0  0
    4.0769   -3.9932    0.0849 C   0  0  0  0  0  0
    2.9413   -3.1674   -0.0598 C   0  0  0  0  0  0
    3.1259   -1.7615   -0.1066 C   0  0  0  0  0  0
    4.4086   -1.1908   -0.0015 C   0  0  0  0  0  0
    1.7151   -3.7384   -0.1391 N   0  0  0  0  0  0
    0.4629   -3.0623   -0.4695 C   0  0  0  0  0  0
    0.4489   -1.7712    0.2299 N   0  0  0  0  0  0
    1.6979   -0.6960   -0.2725 S   0  0  0  0  0  0
    1.4792   -0.4084   -1.7008 O   0  0  0  0  0  0
    1.7649    0.4117    0.6970 O   0  0  0  0  0  0
    0.1744   -1.8703    1.6743 C   0  0  0  0  0  0
    6.5221   -1.5975    0.2203 H   0  0  0  0  0  0
    6.2269   -4.0692    0.2937 H   0  0  0  0  0  0
    3.9732   -5.0686    0.1252 H   0  0  0  0  0  0
    4.5193   -0.1168   -0.0319 H   0  0  0  0  0  0
    1.6892   -4.7535   -0.2025 H   0  0  0  0  0  0
    0.3957   -2.9039   -1.5482 H   0  0  0  0  0  0
   -0.3955   -3.6716   -0.1793 H   0  0  0  0  0  0
   -0.0328   -0.8845    2.0915 H   0  0  0  0  0  0
    1.0313   -2.2907    2.2021 H   0  0  0  0  0  0
   -0.6940   -2.5017    1.8641 H   0  0  0  0  0  0
  1  2  2  0  0  0
  1  6  1  0  0  0
  1 14  1  0  0  0
  2  3  1  0  0  0
  2 15  1  0  0  0
  3  4  2  0  0  0
  3 16  1  0  0  0
  4  5  1  0  0  0
  4  7  1  0  0  0
  5  6  2  0  0  0
  5 10  1  0  0  0
  6 17  1  0  0  0
  7  8  1  0  0  0
  7 18  1  0  0  0
  8  9  1  0  0  0
  8 19  1  0  0  0
  8 20  1  0  0  0
  9 10  1  0  0  0
  9 13  1  0  0  0
 10 11  2  0  0  0
 10 12  2  0  0  0
 13 21  1  0  0  0
 13 22  1  0  0  0
 13 23  1  0  0  0
M  END
> <s_m_entry_name>
Schrodinger_fragment_463

> <i_m_number_of_atoms>
23

> <r_m_molecular_weight>
198.2451

> <s_m_molecular_formula>
C8H10N2O2S1

> <r_epik_Ionization_Penalty>
  0.0000

> <r_epik_Ionization_Penalty_Charging>
  0.0000

> <r_epik_Ionization_Penalty_Neutral>
  0.0000

> <r_epik_State_Penalty>
  0.0000

> <i_epik_Tot_Q>
0

> <r_epik_Metal_State_Penalty>
  0.0000

> <b_epik_Metal_Only>
0

> <s_m_entry_id>
4910

> <s_canvas_Unique_SMILES_Stereo>
N1CN(C)S(=O)(=O)c(c12)cccc2

$$$$
Schrodinger_fragment_373
                    3D
 Structure written by MMmdl.
 26 27  0  0  1  0            999 V2000
    6.3474   -1.9763    0.1016 C   0  0  0  0  0  0
    6.2132   -3.3765    0.1198 C   0  0  0  0  0  0
    4.9388   -3.9727    0.0309 C   0  0  0  0  0  0
    3.7641   -3.1844   -0.0822 C   0  0  0  0  0  0
    3.9289   -1.7708   -0.1043 C   0  0  0  0  0  0
    5.1994   -1.1710   -0.0089 C   0  0  0  0  0  0
    2.5303   -3.7748   -0.1552 N   0  0  0  0  0  0
    1.3117   -3.0539   -0.5515 C   0  0  0  0  0  0
    1.2557   -1.8027    0.2066 N   0  0  0  0  0  0
    2.5002   -0.7042   -0.2244 S   0  0  0  0  0  0
    2.2938   -0.3425   -1.6375 O   0  0  0  0  0  0
    2.5543    0.3506    0.8031 O   0  0  0  0  0  0
    0.9475   -1.9689    1.6382 C   0  0  0  0  0  0
    2.3352   -5.2097    0.0644 C   0  0  0  0  0  0
    7.3262   -1.5217    0.1728 H   0  0  0  0  0  0
    7.0926   -4.0002    0.2038 H   0  0  0  0  0  0
    4.8917   -5.0514    0.0474 H   0  0  0  0  0  0
    5.2825   -0.0941   -0.0214 H   0  0  0  0  0  0
    1.3437   -2.8386   -1.6220 H   0  0  0  0  0  0
    0.3966   -3.6246   -0.3819 H   0  0  0  0  0  0
    0.7000   -1.0070    2.0880 H   0  0  0  0  0  0
    1.8025   -2.3845    2.1732 H   0  0  0  0  0  0
    0.0943   -2.6330    1.7789 H   0  0  0  0  0  0
    1.2842   -5.4889    0.1460 H   0  0  0  0  0  0
    2.8173   -5.5282    0.9897 H   0  0  0  0  0  0
    2.7625   -5.7848   -0.7582 H   0  0  0  0  0  0
  1  2  2  0  0  0
  1  6  1  0  0  0
  1 15  1  0  0  0
  2  3  1  0  0  0
  2 16  1  0  0  0
  3  4  2  0  0  0
  3 17  1  0  0  0
  4  5  1  0  0  0
  4  7  1  0  0  0
  5  6  2  0  0  0
  5 10  1  0  0  0
  6 18  1  0  0  0
  7  8  1  0  0  0
  7 14  1  0  0  0
  8  9  1  0  0  0
  8 19  1  0  0  0
  8 20  1  0  0  0
  9 10  1  0  0  0
  9 13  1  0  0  0
 10 11  2  0  0  0
 10 12  2  0  0  0
 13 21  1  0  0  0
 13 22  1  0  0  0
 13 23  1  0  0  0
 14 24  1  0  0  0
 14 25  1  0  0  0
 14 26  1  0  0  0
M  END
> <s_m_entry_name>
Schrodinger_fragment_464

> <i_m_number_of_atoms>
26

> <r_m_molecular_weight>
212.27219

> <s_m_molecular_formula>
C9H12N2O2S1

> <r_epik_Ionization_Penalty>
  0.0000

> <r_epik_Ionization_Penalty_Charging>
  0.0000

> <r_epik_Ionization_Penalty_Neutral>
  0.0000

> <r_epik_State_Penalty>
  0.0000

> <i_epik_Tot_Q>
0

> <r_epik_Metal_State_Penalty>
  0.0000

> <b_epik_Metal_Only>
0

> <s_m_entry_id>
4911

> <s_canvas_Unique_SMILES_Stereo>
CN1CN(C)S(=O)(=O)c(c12)cccc2

$$$$
Schrodinger_fragment_374
                    3D
 Structure written by MMmdl.
 23 24  0  0  1  0            999 V2000
    6.3680   -1.9453   -0.1640 C   0  0  0  0  0  0
    6.2869   -3.3479   -0.2408 C   0  0  0  0  0  0
    5.0361   -3.9950   -0.1726 C   0  0  0  0  0  0
    3.8339   -3.2552   -0.0290 C   0  0  0  0  0  0
    3.9429   -1.8387    0.0420 C   0  0  0  0  0  0
    5.1907   -1.1887   -0.0202 C   0  0  0  0  0  0
    2.6246   -3.8913    0.0415 N   0  0  0  0  0  0
    1.3467   -3.2037   -0.1787 C   0  0  0  0  0  0
    1.3389   -2.0263    0.6749 N   0  0  0  0  0  0
    2.4776   -0.8361    0.2484 S   0  0  0  0  0  0
    2.0739   -0.2841   -1.0563 O   0  0  0  0  0  0
    2.6355    0.0535    1.4121 O   0  0  0  0  0  0
    2.5097   -5.3386    0.2324 C   0  0  0  0  0  0
    7.3291   -1.4518   -0.2142 H   0  0  0  0  0  0
    7.1889   -3.9338   -0.3526 H   0  0  0  0  0  0
    5.0262   -5.0727   -0.2418 H   0  0  0  0  0  0
    5.2338   -0.1114    0.0445 H   0  0  0  0  0  0
    1.2443   -2.9108   -1.2265 H   0  0  0  0  0  0
    0.4811   -3.8228    0.0644 H   0  0  0  0  0  0
    0.4094   -1.6014    0.7184 H   0  0  0  0  0  0
    1.5049   -5.6469    0.5235 H   0  0  0  0  0  0
    3.1816   -5.6815    1.0205 H   0  0  0  0  0  0
    2.7640   -5.8680   -0.6868 H   0  0  0  0  0  0
  1  2  2  0  0  0
  1  6  1  0  0  0
  1 14  1  0  0  0
  2  3  1  0  0  0
  2 15  1  0  0  0
  3  4  2  0  0  0
  3 16  1  0  0  0
  4  5  1  0  0  0
  4  7  1  0  0  0
  5  6  2  0  0  0
  5 10  1  0  0  0
  6 17  1  0  0  0
  7  8  1  0  0  0
  7 13  1  0  0  0
  8  9  1  0  0  0
  8 18  1  0  0  0
  8 19  1  0  0  0
  9 10  1  0  0  0
  9 20  1  0  0  0
 10 11  2  0  0  0
 10 12  2  0  0  0
 13 21  1  0  0  0
 13 22  1  0  0  0
 13 23  1  0  0  0
M  END
> <s_m_entry_name>
Schrodinger_fragment_465

> <i_m_number_of_atoms>
23

> <r_m_molecular_weight>
198.2451

> <s_m_molecular_formula>
C8H10N2O2S1

> <r_epik_Ionization_Penalty>
  0.0018

> <r_epik_Ionization_Penalty_Charging>
  0.0000

> <r_epik_Ionization_Penalty_Neutral>
  0.0018

> <r_epik_State_Penalty>
  0.0000

> <i_epik_Tot_Q>
0

> <r_epik_Metal_State_Penalty>
  0.8151

> <b_epik_Metal_Only>
0

> <s_m_entry_id>
4912

> <s_canvas_Unique_SMILES_Stereo>
CN1CNS(=O)(=O)c(c12)cccc2

$$$$
Schrodinger_fragment_374_a
                    3D
 Structure written by MMmdl.
 22 23  0  0  1  0            999 V2000
    6.3653   -1.9444   -0.1045 C   0  0  0  0  0  0
    6.2769   -3.3471   -0.1627 C   0  0  0  0  0  0
    5.0210   -3.9871   -0.1331 C   0  0  0  0  0  0
    3.8148   -3.2406   -0.0466 C   0  0  0  0  0  0
    3.9355   -1.8246    0.0030 C   0  0  0  0  0  0
    5.1884   -1.1790   -0.0207 C   0  0  0  0  0  0
    2.5932   -3.8648   -0.0014 N   0  0  0  0  0  0
    1.3046   -3.1740   -0.1702 C   0  0  0  0  0  0
    1.3938   -1.9531    0.5907 N   0  5  0  0  0  0
    2.4453   -0.8323    0.1008 S   0  0  0  0  0  0
    2.1673   -0.3082   -1.2509 O   0  0  0  0  0  0
    2.6633    0.1759    1.1564 O   0  0  0  0  0  0
    2.4907   -5.3269    0.1266 C   0  0  0  0  0  0
    7.3320   -1.4587   -0.1256 H   0  0  0  0  0  0
    7.1785   -3.9397   -0.2295 H   0  0  0  0  0  0
    5.0151   -5.0663   -0.1835 H   0  0  0  0  0  0
    5.2321   -0.0991    0.0230 H   0  0  0  0  0  0
    1.1056   -3.0164   -1.2267 H   0  0  0  0  0  0
    0.4999   -3.8017    0.2086 H   0  0  0  0  0  0
    1.4928   -5.7142    0.3509 H   0  0  0  0  0  0
    3.1330   -5.6789    0.9346 H   0  0  0  0  0  0
    2.8199   -5.8081   -0.7954 H   0  0  0  0  0  0
  1  2  2  0  0  0
  1  6  1  0  0  0
  1 14  1  0  0  0
  2  3  1  0  0  0
  2 15  1  0  0  0
  3  4  2  0  0  0
  3 16  1  0  0  0
  4  5  1  0  0  0
  4  7  1  0  0  0
  5  6  2  0  0  0
  5 10  1  0  0  0
  6 17  1  0  0  0
  7  8  1  0  0  0
  7 13  1  0  0  0
  8  9  1  0  0  0
  8 18  1  0  0  0
  8 19  1  0  0  0
  9 10  1  0  0  0
 10 11  2  0  0  0
 10 12  2  0  0  0
 13 20  1  0  0  0
 13 21  1  0  0  0
 13 22  1  0  0  0
M  CHG  1   9  -1
M  END
> <s_m_entry_name>
Schrodinger_fragment_465

> <i_m_number_of_atoms>
23

> <r_m_molecular_weight>
198.2451

> <s_m_molecular_formula>
C8H10N2O2S1

> <r_epik_Ionization_Penalty>
  4.5362

> <r_epik_Ionization_Penalty_Charging>
  3.4519

> <r_epik_Ionization_Penalty_Neutral>
  1.0842

> <r_epik_State_Penalty>
  3.4502

> <i_epik_Tot_Q>
-1

> <r_epik_Metal_State_Penalty>
  0.1725

> <b_epik_Metal_Only>
1

> <s_m_entry_id>
4913

> <s_canvas_Unique_SMILES_Stereo>
CN1C[N-]S(=O)(=O)c(c12)cccc2

$$$$
Schrodinger_fragment_375
                    3D
 Structure written by MMmdl.
 20 21  0  0  1  0            999 V2000
    1.3245    2.9597    0.0756 N   0  0  0  0  0  0
    1.0401    1.2940   -0.0814 S   0  0  0  0  0  0
    2.5992    0.7404    0.3414 N   0  0  0  0  0  0
    3.7648    1.3931    0.2008 C   0  0  0  0  0  0
    3.8007    2.7511   -0.2090 C   0  0  0  0  0  0
    2.5298    3.5383   -0.5120 C   0  0  0  0  0  0
    4.9703    0.7102    0.4688 C   0  0  0  0  0  0
    6.2069    1.3671    0.3248 C   0  0  0  0  0  0
    6.2454    2.7113   -0.0888 C   0  0  0  0  0  0
    5.0459    3.3984   -0.3552 C   0  0  0  0  0  0
    0.8487    0.9716   -1.5040 O   0  0  0  0  0  0
    0.1102    0.8562    0.9705 O   0  0  0  0  0  0
    1.0096    3.3642    0.9592 H   0  0  0  0  0  0
    2.6415   -0.2322    0.6163 H   0  0  0  0  0  0
    2.4060    3.5774   -1.5949 H   0  0  0  0  0  0
    2.6359    4.5668   -0.1659 H   0  0  0  0  0  0
    4.9593   -0.3238    0.7852 H   0  0  0  0  0  0
    7.1268    0.8374    0.5306 H   0  0  0  0  0  0
    7.1955    3.2161   -0.2018 H   0  0  0  0  0  0
    5.0849    4.4313   -0.6730 H   0  0  0  0  0  0
  1  2  1  0  0  0
  1  6  1  0  0  0
  1 13  1  0  0  0
  2  3  1  0  0  0
  2 11  2  0  0  0
  2 12  2  0  0  0
  3  4  1  0  0  0
  3 14  1  0  0  0
  4  5  2  0  0  0
  4  7  1  0  0  0
  5  6  1  0  0  0
  5 10  1  0  0  0
  6 15  1  0  0  0
  6 16  1  0  0  0
  7  8  2  0  0  0
  7 17  1  0  0  0
  8  9  1  0  0  0
  8 18  1  0  0  0
  9 10  2  0  0  0
  9 19  1  0  0  0
 10 20  1  0  0  0
M  END
> <s_m_entry_name>
Schrodinger_fragment_468

> <i_m_number_of_atoms>
20

> <r_m_molecular_weight>
184.21801

> <s_m_molecular_formula>
C7H8N2O2S1

> <r_epik_Ionization_Penalty>
  0.0054

> <r_epik_Ionization_Penalty_Charging>
  0.0000

> <r_epik_Ionization_Penalty_Neutral>
  0.0054

> <r_epik_State_Penalty>
  0.0000

> <i_epik_Tot_Q>
0

> <r_epik_Metal_State_Penalty>
  1.0982

> <b_epik_Metal_Only>
0

> <s_m_entry_id>
4914

> <s_canvas_Unique_SMILES_Stereo>
C1NS(=O)(=O)Nc(c12)cccc2

$$$$
Schrodinger_fragment_375_a
                    3D
 Structure written by MMmdl.
 19 20  0  0  1  0            999 V2000
    1.3554    2.9105    0.1633 N   0  5  0  0  0  0
    1.0799    1.3331   -0.0815 S   0  0  0  0  0  0
    2.6077    0.7391    0.4070 N   0  0  0  0  0  0
    3.7767    1.3879    0.2353 C   0  0  0  0  0  0
    3.8051    2.7498   -0.1915 C   0  0  0  0  0  0
    2.5163    3.5433   -0.4648 C   0  0  0  0  0  0
    4.9858    0.6999    0.4784 C   0  0  0  0  0  0
    6.2217    1.3487    0.2977 C   0  0  0  0  0  0
    6.2583    2.6893   -0.1268 C   0  0  0  0  0  0
    5.0577    3.3853   -0.3697 C   0  0  0  0  0  0
    0.9570    0.9629   -1.4966 O   0  0  0  0  0  0
    0.1302    0.7870    0.8938 O   0  0  0  0  0  0
    2.6412   -0.2455    0.6445 H   0  0  0  0  0  0
    2.3719    3.6426   -1.5378 H   0  0  0  0  0  0
    2.6315    4.5556   -0.0821 H   0  0  0  0  0  0
    4.9771   -0.3315    0.8032 H   0  0  0  0  0  0
    7.1433    0.8151    0.4847 H   0  0  0  0  0  0
    7.2090    3.1863   -0.2658 H   0  0  0  0  0  0
    5.1128    4.4167   -0.6941 H   0  0  0  0  0  0
  1  2  1  0  0  0
  1  6  1  0  0  0
  2  3  1  0  0  0
  2 11  2  0  0  0
  2 12  2  0  0  0
  3  4  1  0  0  0
  3 13  1  0  0  0
  4  5  2  0  0  0
  4  7  1  0  0  0
  5  6  1  0  0  0
  5 10  1  0  0  0
  6 14  1  0  0  0
  6 15  1  0  0  0
  7  8  2  0  0  0
  7 16  1  0  0  0
  8  9  1  0  0  0
  8 17  1  0  0  0
  9 10  2  0  0  0
  9 18  1  0  0  0
 10 19  1  0  0  0
M  CHG  1   1  -1
M  END
> <s_m_entry_name>
Schrodinger_fragment_468

> <i_m_number_of_atoms>
20

> <r_m_molecular_weight>
184.21801

> <s_m_molecular_formula>
C7H8N2O2S1

> <r_epik_Ionization_Penalty>
  2.9661

> <r_epik_Ionization_Penalty_Charging>
  2.9660

> <r_epik_Ionization_Penalty_Neutral>
  0.0000

> <r_epik_State_Penalty>
  2.9621

> <i_epik_Tot_Q>
-1

> <r_epik_Metal_State_Penalty>
  0.4517

> <b_epik_Metal_Only>
1

> <s_m_entry_id>
4915

> <s_canvas_Unique_SMILES_Stereo>
C1[N-]S(=O)(=O)Nc(c12)cccc2

$$$$
Schrodinger_fragment_375_b
                    3D
 Structure written by MMmdl.
 19 20  0  0  1  0            999 V2000
    1.3147    2.9287    0.0955 N   0  0  0  0  0  0
    1.1197    1.2577   -0.1504 S   0  0  0  0  0  0
    2.5469    0.8216    0.4995 N   0  5  0  0  0  0
    3.7264    1.4271    0.2800 C   0  0  0  0  0  0
    3.7860    2.7631   -0.1980 C   0  0  0  0  0  0
    2.5119    3.5690   -0.4518 C   0  0  0  0  0  0
    4.9356    0.7449    0.5389 C   0  0  0  0  0  0
    6.1785    1.3636    0.3064 C   0  0  0  0  0  0
    6.2291    2.6801   -0.1845 C   0  0  0  0  0  0
    5.0332    3.3773   -0.4337 C   0  0  0  0  0  0
    1.0667    1.0774   -1.6095 O   0  0  0  0  0  0
   -0.0384    0.8496    0.6577 O   0  0  0  0  0  0
    1.1196    3.1889    1.0615 H   0  0  0  0  0  0
    2.3853    3.6870   -1.5289 H   0  0  0  0  0  0
    2.6087    4.5697   -0.0288 H   0  0  0  0  0  0
    4.9253   -0.2718    0.9144 H   0  0  0  0  0  0
    7.0961    0.8255    0.5043 H   0  0  0  0  0  0
    7.1832    3.1563   -0.3643 H   0  0  0  0  0  0
    5.0764    4.3940   -0.8019 H   0  0  0  0  0  0
  1  2  1  0  0  0
  1  6  1  0  0  0
  1 13  1  0  0  0
  2  3  1  0  0  0
  2 11  2  0  0  0
  2 12  2  0  0  0
  3  4  1  0  0  0
  4  5  2  0  0  0
  4  7  1  0  0  0
  5  6  1  0  0  0
  5 10  1  0  0  0
  6 14  1  0  0  0
  6 15  1  0  0  0
  7  8  2  0  0  0
  7 16  1  0  0  0
  8  9  1  0  0  0
  8 17  1  0  0  0
  9 10  2  0  0  0
  9 18  1  0  0  0
 10 19  1  0  0  0
M  CHG  1   3  -1
M  END
> <s_m_entry_name>
Schrodinger_fragment_468

> <i_m_number_of_atoms>
20

> <r_m_molecular_weight>
184.21801

> <s_m_molecular_formula>
C7H8N2O2S1

> <r_epik_Ionization_Penalty>
  3.5744

> <r_epik_Ionization_Penalty_Charging>
  3.5744

> <r_epik_Ionization_Penalty_Neutral>
  0.0001

> <r_epik_State_Penalty>
  3.5729

> <i_epik_Tot_Q>
-1

> <r_epik_Metal_State_Penalty>
  0.5784

> <b_epik_Metal_Only>
1

> <s_m_entry_id>
4916

> <s_canvas_Unique_SMILES_Stereo>
C1NS(=O)(=O)[N-]c(c12)cccc2

$$$$
Schrodinger_fragment_376
                    3D
 Structure written by MMmdl.
 23 24  0  0  1  0            999 V2000
    1.5486   -0.5981    0.2058 N   0  0  0  0  0  0
    1.2912   -2.2770   -0.0173 S   0  0  0  0  0  0
    2.8689   -2.8260    0.3320 N   0  0  0  0  0  0
    4.0176   -2.1442    0.1999 C   0  0  0  0  0  0
    4.0136   -0.7833   -0.1963 C   0  0  0  0  0  0
    2.7150   -0.0428   -0.4952 C   0  0  0  0  0  0
    5.2417   -2.7957    0.4607 C   0  0  0  0  0  0
    6.4587   -2.1016    0.3226 C   0  0  0  0  0  0
    6.4581   -0.7528   -0.0781 C   0  0  0  0  0  0
    5.2391   -0.0979   -0.3379 C   0  0  0  0  0  0
    1.0432   -2.5393   -1.4432 O   0  0  0  0  0  0
    0.4006   -2.7723    1.0433 O   0  0  0  0  0  0
    0.3504    0.2469    0.1174 C   0  0  0  0  0  0
    2.9300   -3.7973    0.6060 H   0  0  0  0  0  0
    2.5386   -0.0779   -1.5714 H   0  0  0  0  0  0
    2.8371    1.0069   -0.2251 H   0  0  0  0  0  0
    5.2602   -3.8327    0.7667 H   0  0  0  0  0  0
    7.3937   -2.6064    0.5227 H   0  0  0  0  0  0
    7.3931   -0.2199   -0.1870 H   0  0  0  0  0  0
    5.2485    0.9382   -0.6472 H   0  0  0  0  0  0
    0.5650    1.2665    0.4386 H   0  0  0  0  0  0
   -0.4390   -0.1486    0.7578 H   0  0  0  0  0  0
   -0.0242    0.2721   -0.9068 H   0  0  0  0  0  0
  1  2  1  0  0  0
  1  6  1  0  0  0
  1 13  1  0  0  0
  2  3  1  0  0  0
  2 11  2  0  0  0
  2 12  2  0  0  0
  3  4  1  0  0  0
  3 14  1  0  0  0
  4  5  2  0  0  0
  4  7  1  0  0  0
  5  6  1  0  0  0
  5 10  1  0  0  0
  6 15  1  0  0  0
  6 16  1  0  0  0
  7  8  2  0  0  0
  7 17  1  0  0  0
  8  9  1  0  0  0
  8 18  1  0  0  0
  9 10  2  0  0  0
  9 19  1  0  0  0
 10 20  1  0  0  0
 13 21  1  0  0  0
 13 22  1  0  0  0
 13 23  1  0  0  0
M  END
> <s_m_entry_name>
Schrodinger_fragment_469

> <i_m_number_of_atoms>
23

> <r_m_molecular_weight>
198.2451

> <s_m_molecular_formula>
C8H10N2O2S1

> <r_epik_Ionization_Penalty>
  0.0609

> <r_epik_Ionization_Penalty_Charging>
  0.0000

> <r_epik_Ionization_Penalty_Neutral>
  0.0609

> <r_epik_State_Penalty>
  0.0609

> <i_epik_Tot_Q>
0

> <r_epik_Metal_State_Penalty>
  2.7813

> <b_epik_Metal_Only>
0

> <s_m_entry_id>
4917

> <s_canvas_Unique_SMILES_Stereo>
CN(C1)S(=O)(=O)Nc(c12)cccc2

$$$$
Schrodinger_fragment_376_a
                    3D
 Structure written by MMmdl.
 22 23  0  0  1  0            999 V2000
    1.5418   -0.6098    0.2333 N   0  0  0  0  0  0
    1.3691   -2.2980   -0.0485 S   0  0  0  0  0  0
    2.8277   -2.7367    0.5288 N   0  5  0  0  0  0
    3.9919   -2.1088    0.2946 C   0  0  0  0  0  0
    4.0156   -0.7645   -0.1597 C   0  0  0  0  0  0
    2.7199    0.0123   -0.3957 C   0  0  0  0  0  0
    5.2183   -2.7716    0.5206 C   0  0  0  0  0  0
    6.4445   -2.1234    0.2798 C   0  0  0  0  0  0
    6.4602   -0.7973   -0.1868 C   0  0  0  0  0  0
    5.2464   -0.1208   -0.4047 C   0  0  0  0  0  0
    1.2467   -2.4453   -1.5069 O   0  0  0  0  0  0
    0.2567   -2.7563    0.7968 O   0  0  0  0  0  0
    0.3214    0.1990    0.1008 C   0  0  0  0  0  0
    2.5539    0.0872   -1.4718 H   0  0  0  0  0  0
    2.8406    1.0290   -0.0186 H   0  0  0  0  0  0
    5.2345   -3.7945    0.8785 H   0  0  0  0  0  0
    7.3760   -2.6460    0.4530 H   0  0  0  0  0  0
    7.4013   -0.2984   -0.3735 H   0  0  0  0  0  0
    5.2634    0.9019   -0.7581 H   0  0  0  0  0  0
    0.4944    1.2251    0.4258 H   0  0  0  0  0  0
   -0.4780   -0.2183    0.7134 H   0  0  0  0  0  0
   -0.0154    0.2096   -0.9364 H   0  0  0  0  0  0
  1  2  1  0  0  0
  1  6  1  0  0  0
  1 13  1  0  0  0
  2  3  1  0  0  0
  2 11  2  0  0  0
  2 12  2  0  0  0
  3  4  1  0  0  0
  4  5  2  0  0  0
  4  7  1  0  0  0
  5  6  1  0  0  0
  5 10  1  0  0  0
  6 14  1  0  0  0
  6 15  1  0  0  0
  7  8  2  0  0  0
  7 16  1  0  0  0
  8  9  1  0  0  0
  8 17  1  0  0  0
  9 10  2  0  0  0
  9 18  1  0  0  0
 10 19  1  0  0  0
 13 20  1  0  0  0
 13 21  1  0  0  0
 13 22  1  0  0  0
M  CHG  1   3  -1
M  END
> <s_m_entry_name>
Schrodinger_fragment_469

> <i_m_number_of_atoms>
23

> <r_m_molecular_weight>
198.2451

> <s_m_molecular_formula>
C8H10N2O2S1

> <r_epik_Ionization_Penalty>
  1.3778

> <r_epik_Ionization_Penalty_Charging>
  1.3778

> <r_epik_Ionization_Penalty_Neutral>
  0.0000

> <r_epik_State_Penalty>
  1.3778

> <i_epik_Tot_Q>
-1

> <r_epik_Metal_State_Penalty>
  0.0054

> <b_epik_Metal_Only>
0

> <s_m_entry_id>
4918

> <s_canvas_Unique_SMILES_Stereo>
CN(C1)S(=O)(=O)[N-]c(c12)cccc2

$$$$
Schrodinger_fragment_377
                    3D
 Structure written by MMmdl.
 26 27  0  0  1  0            999 V2000
    1.5658   -0.6399    0.2321 N   0  0  0  0  0  0
    1.2588   -2.2832   -0.1085 S   0  0  0  0  0  0
    2.8429   -2.9486    0.1294 N   0  0  0  0  0  0
    4.0028   -2.2347    0.0963 C   0  0  0  0  0  0
    3.9986   -0.8430   -0.2012 C   0  0  0  0  0  0
    2.7130   -0.0816   -0.4798 C   0  0  0  0  0  0
    5.2539   -2.8564    0.3543 C   0  0  0  0  0  0
    6.4569   -2.1282    0.3050 C   0  0  0  0  0  0
    6.4380   -0.7591   -0.0043 C   0  0  0  0  0  0
    5.2114   -0.1223   -0.2565 C   0  0  0  0  0  0
    0.9435   -2.4253   -1.5379 O   0  0  0  0  0  0
    0.3821   -2.8243    0.9418 O   0  0  0  0  0  0
    0.3874    0.2374    0.2329 C   0  0  0  0  0  0
    2.8610   -4.4028    0.2898 C   0  0  0  0  0  0
    2.5202   -0.0995   -1.5537 H   0  0  0  0  0  0
    2.8461    0.9632   -0.1958 H   0  0  0  0  0  0
    5.3277   -3.9059    0.5977 H   0  0  0  0  0  0
    7.3966   -2.6245    0.5039 H   0  0  0  0  0  0
    7.3618   -0.1977   -0.0458 H   0  0  0  0  0  0
    5.2052    0.9333   -0.4917 H   0  0  0  0  0  0
    0.6361    1.2280    0.6147 H   0  0  0  0  0  0
   -0.3947   -0.1806    0.8678 H   0  0  0  0  0  0
   -0.0137    0.3398   -0.7765 H   0  0  0  0  0  0
    3.5026   -4.8755   -0.4545 H   0  0  0  0  0  0
    1.8676   -4.8347    0.1622 H   0  0  0  0  0  0
    3.2070   -4.6806    1.2857 H   0  0  0  0  0  0
  1  2  1  0  0  0
  1  6  1  0  0  0
  1 13  1  0  0  0
  2  3  1  0  0  0
  2 11  2  0  0  0
  2 12  2  0  0  0
  3  4  1  0  0  0
  3 14  1  0  0  0
  4  5  2  0  0  0
  4  7  1  0  0  0
  5  6  1  0  0  0
  5 10  1  0  0  0
  6 15  1  0  0  0
  6 16  1  0  0  0
  7  8  2  0  0  0
  7 17  1  0  0  0
  8  9  1  0  0  0
  8 18  1  0  0  0
  9 10  2  0  0  0
  9 19  1  0  0  0
 10 20  1  0  0  0
 13 21  1  0  0  0
 13 22  1  0  0  0
 13 23  1  0  0  0
 14 24  1  0  0  0
 14 25  1  0  0  0
 14 26  1  0  0  0
M  END
> <s_m_entry_name>
Schrodinger_fragment_470

> <i_m_number_of_atoms>
26

> <r_m_molecular_weight>
212.27219

> <s_m_molecular_formula>
C9H12N2O2S1

> <r_epik_Ionization_Penalty>
  0.0000

> <r_epik_Ionization_Penalty_Charging>
  0.0000

> <r_epik_Ionization_Penalty_Neutral>
  0.0000

> <r_epik_State_Penalty>
  0.0000

> <i_epik_Tot_Q>
0

> <r_epik_Metal_State_Penalty>
  0.0000

> <b_epik_Metal_Only>
0

> <s_m_entry_id>
4919

> <s_canvas_Unique_SMILES_Stereo>
CN(C1)S(=O)(=O)N(C)c(c12)cccc2

$$$$
Schrodinger_fragment_378
                    3D
 Structure written by MMmdl.
 23 24  0  0  1  0            999 V2000
    1.5744   -0.5516    0.2783 N   0  0  0  0  0  0
    1.2111   -2.1673   -0.0490 S   0  0  0  0  0  0
    2.7850   -2.8681    0.1625 N   0  0  0  0  0  0
    3.9644   -2.1895    0.0647 C   0  0  0  0  0  0
    3.9936   -0.7892   -0.1984 C   0  0  0  0  0  0
    2.7297    0.0383   -0.3710 C   0  0  0  0  0  0
    5.2078   -2.8599    0.2222 C   0  0  0  0  0  0
    6.4310   -2.1740    0.1098 C   0  0  0  0  0  0
    6.4427   -0.7975   -0.1633 C   0  0  0  0  0  0
    5.2264   -0.1118   -0.3162 C   0  0  0  0  0  0
    0.8802   -2.3047   -1.4757 O   0  0  0  0  0  0
    0.3407   -2.6825    1.0192 O   0  0  0  0  0  0
    2.7690   -4.3185    0.3581 C   0  0  0  0  0  0
    1.4063   -0.2696    1.2452 H   0  0  0  0  0  0
    2.5249    0.1338   -1.4381 H   0  0  0  0  0  0
    2.8791    1.0461    0.0180 H   0  0  0  0  0  0
    5.2619   -3.9175    0.4331 H   0  0  0  0  0  0
    7.3627   -2.7087    0.2322 H   0  0  0  0  0  0
    7.3818   -0.2680   -0.2527 H   0  0  0  0  0  0
    5.2430    0.9495   -0.5236 H   0  0  0  0  0  0
    3.1877   -4.5863    1.3285 H   0  0  0  0  0  0
    3.3308   -4.8285   -0.4250 H   0  0  0  0  0  0
    1.7564   -4.7219    0.3236 H   0  0  0  0  0  0
  1  2  1  0  0  0
  1  6  1  0  0  0
  1 14  1  0  0  0
  2  3  1  0  0  0
  2 11  2  0  0  0
  2 12  2  0  0  0
  3  4  1  0  0  0
  3 13  1  0  0  0
  4  5  2  0  0  0
  4  7  1  0  0  0
  5  6  1  0  0  0
  5 10  1  0  0  0
  6 15  1  0  0  0
  6 16  1  0  0  0
  7  8  2  0  0  0
  7 17  1  0  0  0
  8  9  1  0  0  0
  8 18  1  0  0  0
  9 10  2  0  0  0
  9 19  1  0  0  0
 10 20  1  0  0  0
 13 21  1  0  0  0
 13 22  1  0  0  0
 13 23  1  0  0  0
M  END
> <s_m_entry_name>
Schrodinger_fragment_471

> <i_m_number_of_atoms>
23

> <r_m_molecular_weight>
198.2451

> <s_m_molecular_formula>
C8H10N2O2S1

> <r_epik_Ionization_Penalty>
  0.0121

> <r_epik_Ionization_Penalty_Charging>
  0.0000

> <r_epik_Ionization_Penalty_Neutral>
  0.0121

> <r_epik_State_Penalty>
  0.0121

> <i_epik_Tot_Q>
0

> <r_epik_Metal_State_Penalty>
  1.8223

> <b_epik_Metal_Only>
0

> <s_m_entry_id>
4920

> <s_canvas_Unique_SMILES_Stereo>
C1NS(=O)(=O)N(C)c(c12)cccc2

$$$$
Schrodinger_fragment_378_a
                    3D
 Structure written by MMmdl.
 22 23  0  0  1  0            999 V2000
    1.6111   -0.6108    0.3625 N   0  5  0  0  0  0
    1.2481   -2.1293   -0.0422 S   0  0  0  0  0  0
    2.8026   -2.8753    0.2092 N   0  0  0  0  0  0
    3.9835   -2.1973    0.0850 C   0  0  0  0  0  0
    4.0059   -0.7897   -0.1789 C   0  0  0  0  0  0
    2.7241    0.0398   -0.3085 C   0  0  0  0  0  0
    5.2276   -2.8741    0.2109 C   0  0  0  0  0  0
    6.4502   -2.1934    0.0677 C   0  0  0  0  0  0
    6.4619   -0.8166   -0.2033 C   0  0  0  0  0  0
    5.2464   -0.1206   -0.3238 C   0  0  0  0  0  0
    0.9629   -2.3145   -1.4705 O   0  0  0  0  0  0
    0.3523   -2.7352    0.9499 O   0  0  0  0  0  0
    2.7775   -4.3291    0.3860 C   0  0  0  0  0  0
    2.5036    0.2104   -1.3591 H   0  0  0  0  0  0
    2.8862    1.0232    0.1289 H   0  0  0  0  0  0
    5.2804   -3.9320    0.4204 H   0  0  0  0  0  0
    7.3822   -2.7326    0.1660 H   0  0  0  0  0  0
    7.4018   -0.2927   -0.3144 H   0  0  0  0  0  0
    5.2833    0.9425   -0.5268 H   0  0  0  0  0  0
    3.1966   -4.6097    1.3522 H   0  0  0  0  0  0
    3.3357   -4.8307   -0.4046 H   0  0  0  0  0  0
    1.7630   -4.7256    0.3449 H   0  0  0  0  0  0
  1  2  1  0  0  0
  1  6  1  0  0  0
  2  3  1  0  0  0
  2 11  2  0  0  0
  2 12  2  0  0  0
  3  4  1  0  0  0
  3 13  1  0  0  0
  4  5  2  0  0  0
  4  7  1  0  0  0
  5  6  1  0  0  0
  5 10  1  0  0  0
  6 14  1  0  0  0
  6 15  1  0  0  0
  7  8  2  0  0  0
  7 16  1  0  0  0
  8  9  1  0  0  0
  8 17  1  0  0  0
  9 10  2  0  0  0
  9 18  1  0  0  0
 10 19  1  0  0  0
 13 20  1  0  0  0
 13 21  1  0  0  0
 13 22  1  0  0  0
M  CHG  1   1  -1
M  END
> <s_m_entry_name>
Schrodinger_fragment_471

> <i_m_number_of_atoms>
23

> <r_m_molecular_weight>
198.2451

> <s_m_molecular_formula>
C8H10N2O2S1

> <r_epik_Ionization_Penalty>
  2.3106

> <r_epik_Ionization_Penalty_Charging>
  2.3106

> <r_epik_Ionization_Penalty_Neutral>
  0.0000

> <r_epik_State_Penalty>
  2.3106

> <i_epik_Tot_Q>
-1

> <r_epik_Metal_State_Penalty>
  0.0280

> <b_epik_Metal_Only>
0

> <s_m_entry_id>
4921

> <s_canvas_Unique_SMILES_Stereo>
C1[N-]S(=O)(=O)N(C)c(c12)cccc2

$$$$
Schrodinger_fragment_379
                    3D
 Structure written by MMmdl.
 18 19  0  0  1  0            999 V2000
    0.1425    0.6852   -0.3020 C   0  0  0  0  0  0
    1.2437    0.0848    0.0344 N   0  0  0  0  0  0
    2.4701    0.7798    0.0471 C   0  0  0  0  0  0
    2.5873    2.1947    0.0061 C   0  0  0  0  0  0
    1.0999    3.1750   -0.0736 S   0  0  0  0  0  0
    3.6575    0.0186    0.1205 C   0  0  0  0  0  0
    4.9194    0.6480    0.1345 C   0  0  0  0  0  0
    5.0150    2.0524    0.0778 C   0  0  0  0  0  0
    3.8431    2.8307    0.0126 C   0  0  0  0  0  0
    1.2475    4.2301   -1.0925 O   0  0  0  0  0  0
    0.6779    3.5229    1.2951 O   0  0  0  0  0  0
   -0.8108    0.1549   -0.3396 H   0  0  0  0  0  0
    3.6064   -1.0609    0.1620 H   0  0  0  0  0  0
    5.8182    0.0488    0.1872 H   0  0  0  0  0  0
    5.9845    2.5315    0.0863 H   0  0  0  0  0  0
    3.8978    3.9088   -0.0286 H   0  0  0  0  0  0
    0.0036    2.0229   -0.6792 N   0  0  0  0  0  0
   -0.9600    2.3501   -0.7339 H   0  0  0  0  0  0
  1  2  2  0  0  0
  1 12  1  0  0  0
  1 17  1  0  0  0
  2  3  1  0  0  0
  3  4  2  0  0  0
  3  6  1  0  0  0
  4  5  1  0  0  0
  4  9  1  0  0  0
  5 10  2  0  0  0
  5 11  2  0  0  0
  5 17  1  0  0  0
  6  7  2  0  0  0
  6 13  1  0  0  0
  7  8  1  0  0  0
  7 14  1  0  0  0
  8  9  2  0  0  0
  8 15  1  0  0  0
  9 16  1  0  0  0
 17 18  1  0  0  0
M  END
> <s_m_entry_name>
Schrodinger_fragment_472

> <i_m_number_of_atoms>
17

> <r_m_molecular_weight>
181.1941

> <s_m_molecular_formula>
C7H5N2O2S1

> <r_epik_Ionization_Penalty>
  0.2555

> <r_epik_Ionization_Penalty_Charging>
  0.0000

> <r_epik_Ionization_Penalty_Neutral>
  0.2555

> <r_epik_State_Penalty>
  0.2574

> <i_epik_Tot_Q>
0

> <r_epik_Metal_State_Penalty>
  3.5088

> <b_epik_Metal_Only>
0

> <s_m_entry_id>
4922

> <s_canvas_Unique_SMILES_Stereo>
N1=CNS(=O)(=O)c(c12)cccc2

$$$$
Schrodinger_fragment_379_a
                    3D
 Structure written by MMmdl.
 17 18  0  0  1  0            999 V2000
    0.1510    0.7410   -0.1689 C   0  0  0  0  0  0
    1.2164    0.1055    0.1286 N   0  0  0  0  0  0
    2.4549    0.7623    0.0902 C   0  0  0  0  0  0
    2.5436    2.1741    0.0456 C   0  0  0  0  0  0
    1.0242    3.1270    0.0233 S   0  0  0  0  0  0
    3.6467    0.0067    0.1182 C   0  0  0  0  0  0
    4.9001    0.6523    0.0839 C   0  0  0  0  0  0
    4.9762    2.0585    0.0242 C   0  0  0  0  0  0
    3.7936    2.8246    0.0041 C   0  0  0  0  0  0
    1.2320    4.2797   -0.8753 O   0  0  0  0  0  0
    0.6734    3.4280    1.4251 O   0  0  0  0  0  0
   -0.8302    0.2663   -0.0833 H   0  0  0  0  0  0
    3.6067   -1.0736    0.1621 H   0  0  0  0  0  0
    5.8073    0.0645    0.1021 H   0  0  0  0  0  0
    5.9409    2.5478   -0.0044 H   0  0  0  0  0  0
    3.8338    3.9048   -0.0394 H   0  0  0  0  0  0
    0.0668    2.0182   -0.6380 N   0  5  0  0  0  0
  1  2  2  0  0  0
  1 12  1  0  0  0
  1 17  1  0  0  0
  2  3  1  0  0  0
  3  4  2  0  0  0
  3  6  1  0  0  0
  4  5  1  0  0  0
  4  9  1  0  0  0
  5 10  2  0  0  0
  5 11  2  0  0  0
  5 17  1  0  0  0
  6  7  2  0  0  0
  6 13  1  0  0  0
  7  8  1  0  0  0
  7 14  1  0  0  0
  8  9  2  0  0  0
  8 15  1  0  0  0
  9 16  1  0  0  0
M  CHG  1  17  -1
M  END
> <s_m_entry_name>
Schrodinger_fragment_472

> <i_m_number_of_atoms>
17

> <r_m_molecular_weight>
181.1941

> <s_m_molecular_formula>
C7H5N2O2S1

> <r_epik_Ionization_Penalty>
  0.8707

> <r_epik_Ionization_Penalty_Charging>
  0.7896

> <r_epik_Ionization_Penalty_Neutral>
  0.0812

> <r_epik_State_Penalty>
  0.8655

> <i_epik_Tot_Q>
-1

> <r_epik_Metal_State_Penalty>
  0.0242

> <b_epik_Metal_Only>
0

> <s_m_entry_id>
4923

> <s_canvas_Unique_SMILES_Stereo>
N1=C[N-]S(=O)(=O)c(c12)cccc2

$$$$
Schrodinger_fragment_379_b
                    3D
 Structure written by MMmdl.
 19 20  0  0  1  0            999 V2000
    0.1147    0.6850   -0.2993 C   0  0  0  0  0  0
    1.2125    0.1271    0.2514 N   0  0  0  0  0  0
    2.4905    0.7838    0.1748 C   0  0  0  0  0  0
    2.5765    2.1869    0.0758 C   0  0  0  0  0  0
    1.0874    3.1612    0.0097 S   0  0  0  0  0  0
    3.6672    0.0050    0.1909 C   0  0  0  0  0  0
    4.9251    0.6386    0.1162 C   0  0  0  0  0  0
    5.0093    2.0434    0.0210 C   0  0  0  0  0  0
    3.8326    2.8210   -0.0025 C   0  0  0  0  0  0
    1.1914    4.1594   -1.0740 O   0  0  0  0  0  0
    0.7029    3.5775    1.3734 O   0  0  0  0  0  0
   -0.6814    0.0220   -0.6139 H   0  0  0  0  0  0
    3.6142   -1.0721    0.2626 H   0  0  0  0  0  0
    5.8286    0.0443    0.1309 H   0  0  0  0  0  0
    5.9764    2.5244   -0.0384 H   0  0  0  0  0  0
    3.8863    3.8970   -0.0841 H   0  0  0  0  0  0
   -0.0667    2.0021   -0.4951 N   0  3  0  0  0  0
   -0.8963    2.3792   -0.9194 H   0  0  0  0  0  0
    1.1629   -0.8690    0.4166 H   0  0  0  0  0  0
  1  2  1  0  0  0
  1 12  1  0  0  0
  1 17  2  0  0  0
  2  3  1  0  0  0
  2 19  1  0  0  0
  3  4  2  0  0  0
  3  6  1  0  0  0
  4  5  1  0  0  0
  4  9  1  0  0  0
  5 10  2  0  0  0
  5 11  2  0  0  0
  5 17  1  0  0  0
  6  7  2  0  0  0
  6 13  1  0  0  0
  7  8  1  0  0  0
  7 14  1  0  0  0
  8  9  2  0  0  0
  8 15  1  0  0  0
  9 16  1  0  0  0
 17 18  1  0  0  0
M  CHG  1  17   1
M  END
> <s_m_entry_name>
Schrodinger_fragment_472

> <i_m_number_of_atoms>
17

> <r_m_molecular_weight>
181.1941

> <s_m_molecular_formula>
C7H5N2O2S1

> <r_epik_Ionization_Penalty>
  7.3622

> <r_epik_Ionization_Penalty_Charging>
  6.0936

> <r_epik_Ionization_Penalty_Neutral>
  1.2686

> <r_epik_State_Penalty>
  1.4519

> <i_epik_Tot_Q>
1

> <r_epik_Metal_State_Penalty>
  5.4913

> <b_epik_Metal_Only>
0

> <s_m_entry_id>
4924

> <s_canvas_Unique_SMILES_Stereo>
N1C=[NH+]S(=O)(=O)c(c12)cccc2

$$$$
Schrodinger_fragment_379_c
                    3D
 Structure written by MMmdl.
 18 19  0  0  1  0            999 V2000
    0.0154    0.7618   -0.0159 C   0  0  0  0  0  0
    1.2664    0.1698    0.0204 N   0  0  0  0  0  0
    2.4737    0.7577    0.0531 C   0  0  0  0  0  0
    2.5598    2.1641    0.0539 C   0  0  0  0  0  0
    1.0422    3.1271    0.0112 S   0  0  0  0  0  0
    3.6585   -0.0087    0.0865 C   0  0  0  0  0  0
    4.9123    0.6366    0.1201 C   0  0  0  0  0  0
    4.9897    2.0449    0.1205 C   0  0  0  0  0  0
    3.8084    2.8136    0.0873 C   0  0  0  0  0  0
    1.0321    3.8890   -1.2507 O   0  0  0  0  0  0
    0.9614    3.8893    1.2704 O   0  0  0  0  0  0
   -0.8048    0.0415   -0.0386 H   0  0  0  0  0  0
    3.6199   -1.0893    0.0866 H   0  0  0  0  0  0
    5.8191    0.0478    0.1456 H   0  0  0  0  0  0
    5.9536    2.5347    0.1463 H   0  0  0  0  0  0
    3.8492    3.8930    0.0872 H   0  0  0  0  0  0
   -0.2289    2.0322   -0.0243 N   0  0  0  0  0  0
    1.3105   -0.8451    0.0229 H   0  0  0  0  0  0
  1  2  1  0  0  0
  1 12  1  0  0  0
  1 17  2  0  0  0
  2  3  1  0  0  0
  2 18  1  0  0  0
  3  4  2  0  0  0
  3  6  1  0  0  0
  4  5  1  0  0  0
  4  9  1  0  0  0
  5 10  2  0  0  0
  5 11  2  0  0  0
  5 17  1  0  0  0
  6  7  2  0  0  0
  6 13  1  0  0  0
  7  8  1  0  0  0
  7 14  1  0  0  0
  8  9  2  0  0  0
  8 15  1  0  0  0
  9 16  1  0  0  0
M  END
> <s_m_entry_name>
Schrodinger_fragment_472

> <i_m_number_of_atoms>
17

> <r_m_molecular_weight>
181.1941

> <s_m_molecular_formula>
C7H5N2O2S1

> <r_epik_Ionization_Penalty>
  0.0000

> <r_epik_Ionization_Penalty_Charging>
  0.0000

> <r_epik_Ionization_Penalty_Neutral>
  0.0000

> <r_epik_State_Penalty>
  2.0022

> <i_epik_Tot_Q>
0

> <r_epik_Metal_State_Penalty>
  1.9488

> <b_epik_Metal_Only>
0

> <s_m_entry_id>
4925

> <s_canvas_Unique_SMILES_Stereo>
N1C=NS(=O)(=O)c(c12)cccc2

$$$$
Schrodinger_fragment_380
                    3D
 Structure written by MMmdl.
 21 22  0  0  1  0            999 V2000
    0.4877   -1.7969   -0.1536 N   0  0  0  0  0  0
    0.6730   -3.1535    0.1689 C   0  0  0  0  0  0
    1.7939   -3.7821    0.3511 N   0  0  0  0  0  0
    3.0307   -3.1282    0.2029 C   0  0  0  0  0  0
    3.1860   -1.7206    0.1364 C   0  0  0  0  0  0
    1.7375   -0.6912    0.2502 S   0  0  0  0  0  0
    4.1921   -3.9282    0.1257 C   0  0  0  0  0  0
    5.4647   -3.3409   -0.0296 C   0  0  0  0  0  0
    5.5969   -1.9406   -0.1083 C   0  0  0  0  0  0
    4.4516   -1.1254   -0.0253 C   0  0  0  0  0  0
    1.7722    0.3427   -0.8000 O   0  0  0  0  0  0
    1.5340   -0.2923    1.6544 O   0  0  0  0  0  0
   -0.8733   -1.2607   -0.2838 C   0  0  0  0  0  0
   -0.2774   -3.6872    0.2320 H   0  0  0  0  0  0
    4.1119   -5.0054    0.1805 H   0  0  0  0  0  0
    6.3429   -3.9692   -0.0906 H   0  0  0  0  0  0
    6.5739   -1.4931   -0.2297 H   0  0  0  0  0  0
    4.5345   -0.0497   -0.0800 H   0  0  0  0  0  0
   -0.8506   -0.2624   -0.7216 H   0  0  0  0  0  0
   -1.3484   -1.1894    0.6953 H   0  0  0  0  0  0
   -1.4838   -1.8946   -0.9279 H   0  0  0  0  0  0
  1  2  1  0  0  0
  1  6  1  0  0  0
  1 13  1  0  0  0
  2  3  2  0  0  0
  2 14  1  0  0  0
  3  4  1  0  0  0
  4  5  2  0  0  0
  4  7  1  0  0  0
  5  6  1  0  0  0
  5 10  1  0  0  0
  6 11  2  0  0  0
  6 12  2  0  0  0
  7  8  2  0  0  0
  7 15  1  0  0  0
  8  9  1  0  0  0
  8 16  1  0  0  0
  9 10  2  0  0  0
  9 17  1  0  0  0
 10 18  1  0  0  0
 13 19  1  0  0  0
 13 20  1  0  0  0
 13 21  1  0  0  0
M  END
> <s_m_entry_name>
Schrodinger_fragment_474

> <i_m_number_of_atoms>
21

> <r_m_molecular_weight>
196.22916

> <s_m_molecular_formula>
C8H8N2O2S1

> <r_epik_Ionization_Penalty>
  0.0741

> <r_epik_Ionization_Penalty_Charging>
  0.0000

> <r_epik_Ionization_Penalty_Neutral>
  0.0741

> <r_epik_State_Penalty>
  0.0741

> <i_epik_Tot_Q>
0

> <r_epik_Metal_State_Penalty>
  0.0741

> <b_epik_Metal_Only>
0

> <s_m_entry_id>
4926

> <s_canvas_Unique_SMILES_Stereo>
N1=CN(C)S(=O)(=O)c(c12)cccc2

$$$$
Schrodinger_fragment_380_a
                    3D
 Structure written by MMmdl.
 22 23  0  0  1  0            999 V2000
    0.4541   -1.8020    0.0633 N   0  0  0  0  0  0
    0.6383   -3.1214    0.2694 C   0  0  0  0  0  0
    1.7902   -3.7062    0.6595 N   0  3  0  0  0  0
    3.0616   -3.1082    0.3584 C   0  0  0  0  0  0
    3.1834   -1.7137    0.2097 C   0  0  0  0  0  0
    1.7428   -0.6803    0.3599 S   0  0  0  0  0  0
    4.1931   -3.9367    0.2047 C   0  0  0  0  0  0
    5.4457   -3.3592   -0.0898 C   0  0  0  0  0  0
    5.5678   -1.9613   -0.2346 C   0  0  0  0  0  0
    4.4340   -1.1349   -0.0876 C   0  0  0  0  0  0
    1.7273    0.3027   -0.7439 O   0  0  0  0  0  0
    1.6010   -0.2248    1.7583 O   0  0  0  0  0  0
   -0.8480   -1.2656   -0.3503 C   0  0  0  0  0  0
   -0.2119   -3.7705    0.1030 H   0  0  0  0  0  0
    4.1108   -5.0090    0.3129 H   0  0  0  0  0  0
    6.3158   -3.9911   -0.2059 H   0  0  0  0  0  0
    6.5301   -1.5232   -0.4626 H   0  0  0  0  0  0
    4.5160   -0.0640   -0.2053 H   0  0  0  0  0  0
   -0.8579   -0.1765   -0.3194 H   0  0  0  0  0  0
   -1.6296   -1.6300    0.3144 H   0  0  0  0  0  0
   -1.0765   -1.5831   -1.3664 H   0  0  0  0  0  0
    1.7377   -4.6954    0.8631 H   0  0  0  0  0  0
  1  2  1  0  0  0
  1  6  1  0  0  0
  1 13  1  0  0  0
  2  3  2  0  0  0
  2 14  1  0  0  0
  3  4  1  0  0  0
  3 22  1  0  0  0
  4  5  2  0  0  0
  4  7  1  0  0  0
  5  6  1  0  0  0
  5 10  1  0  0  0
  6 11  2  0  0  0
  6 12  2  0  0  0
  7  8  2  0  0  0
  7 15  1  0  0  0
  8  9  1  0  0  0
  8 16  1  0  0  0
  9 10  2  0  0  0
  9 17  1  0  0  0
 10 18  1  0  0  0
 13 19  1  0  0  0
 13 20  1  0  0  0
 13 21  1  0  0  0
M  CHG  1   3   1
M  END
> <s_m_entry_name>
Schrodinger_fragment_474

> <i_m_number_of_atoms>
21

> <r_m_molecular_weight>
196.22916

> <s_m_molecular_formula>
C8H8N2O2S1

> <r_epik_Ionization_Penalty>
  1.2686

> <r_epik_Ionization_Penalty_Charging>
  1.2686

> <r_epik_Ionization_Penalty_Neutral>
  0.0000

> <r_epik_State_Penalty>
  1.2686

> <i_epik_Tot_Q>
1

> <r_epik_Metal_State_Penalty>
  1.2686

> <b_epik_Metal_Only>
0

> <s_m_entry_id>
4927

> <s_canvas_Unique_SMILES_Stereo>
[NH+]1=CN(C)S(=O)(=O)c(c12)cccc2

$$$$
Schrodinger_fragment_381
                    3D
 Structure written by MMmdl.
 17 18  0  0  1  0            999 V2000
    3.8012    2.8385    0.0238 C   0  0  0  0  0  0
    3.8211    1.4324    0.2524 C   0  0  0  0  0  0
    5.0518    0.7418    0.3147 C   0  0  0  0  0  0
    6.2661    1.4212    0.1176 C   0  0  0  0  0  0
    6.2600    2.8014   -0.1405 C   0  0  0  0  0  0
    5.0398    3.5013   -0.1850 C   0  0  0  0  0  0
    2.4701    3.5652    0.0339 C   0  0  0  0  0  0
    1.3535    2.9615    0.0042 N   0  0  0  0  0  0
    1.2374    1.3003   -0.1981 S   0  0  0  0  0  0
    2.6579    0.7758    0.4110 N   0  5  0  0  0  0
    2.6305    4.7905    0.1332 O   0  5  0  0  0  0
    0.0742    0.8744    0.5958 O   0  0  0  0  0  0
    1.1180    1.0941   -1.6504 O   0  0  0  0  0  0
    5.0759   -0.3253    0.5014 H   0  0  0  0  0  0
    7.2033    0.8818    0.1587 H   0  0  0  0  0  0
    7.1914    3.3274   -0.2976 H   0  0  0  0  0  0
    5.0680    4.5654   -0.3751 H   0  0  0  0  0  0
  1  2  2  0  0  0
  1  6  1  0  0  0
  1  7  1  0  0  0
  2  3  1  0  0  0
  2 10  1  0  0  0
  3  4  2  0  0  0
  3 14  1  0  0  0
  4  5  1  0  0  0
  4 15  1  0  0  0
  5  6  2  0  0  0
  5 16  1  0  0  0
  6 17  1  0  0  0
  7  8  2  0  0  0
  7 11  1  0  0  0
  8  9  1  0  0  0
  9 10  1  0  0  0
  9 12  2  0  0  0
  9 13  2  0  0  0
M  CHG  2  10  -1  11  -1
M  END
> <s_m_entry_name>
Schrodinger_fragment_475

> <i_m_number_of_atoms>
19

> <r_m_molecular_weight>
198.20147

> <s_m_molecular_formula>
C7H6N2O3S1

> <r_epik_Ionization_Penalty>
  3.2335

> <r_epik_Ionization_Penalty_Charging>
  3.2335

> <r_epik_Ionization_Penalty_Neutral>
  0.0000

> <r_epik_State_Penalty>
  0.1751

> <i_epik_Tot_Q>
-2

> <r_epik_Metal_State_Penalty>
  0.0014

> <b_epik_Metal_Only>
0

> <s_m_entry_id>
4928

> <s_canvas_Unique_SMILES_Stereo>
c1cccc(c12)[N-]S(=O)(=O)N=C2[O-]

$$$$
Schrodinger_fragment_381_a
                    3D
 Structure written by MMmdl.
 18 19  0  0  1  0            999 V2000
    3.8289    2.8453    0.0230 C   0  0  0  0  0  0
    3.8138    1.4357    0.2468 C   0  0  0  0  0  0
    5.0394    0.7358    0.2985 C   0  0  0  0  0  0
    6.2615    1.4060    0.1076 C   0  0  0  0  0  0
    6.2757    2.7908   -0.1306 C   0  0  0  0  0  0
    5.0642    3.5051   -0.1684 C   0  0  0  0  0  0
    2.5467    3.6573    0.0246 C   0  0  0  0  0  0
    1.3906    2.9350    0.2802 N   0  0  0  0  0  0
    1.2137    1.2956   -0.1436 S   0  0  0  0  0  0
    2.6536    0.7796    0.4203 N   0  5  0  0  0  0
    2.5326    4.8898   -0.0737 O   0  0  0  0  0  0
    0.0699    0.7780    0.6240 O   0  0  0  0  0  0
    1.1398    1.2627   -1.6135 O   0  0  0  0  0  0
    5.0572   -0.3331    0.4773 H   0  0  0  0  0  0
    7.1920    0.8549    0.1435 H   0  0  0  0  0  0
    7.2149    3.3066   -0.2766 H   0  0  0  0  0  0
    5.0876    4.5736   -0.3381 H   0  0  0  0  0  0
    0.4994    3.3876    0.4561 H   0  0  0  0  0  0
  1  2  2  0  0  0
  1  6  1  0  0  0
  1  7  1  0  0  0
  2  3  1  0  0  0
  2 10  1  0  0  0
  3  4  2  0  0  0
  3 14  1  0  0  0
  4  5  1  0  0  0
  4 15  1  0  0  0
  5  6  2  0  0  0
  5 16  1  0  0  0
  6 17  1  0  0  0
  7  8  1  0  0  0
  7 11  2  0  0  0
  8  9  1  0  0  0
  8 18  1  0  0  0
  9 10  1  0  0  0
  9 12  2  0  0  0
  9 13  2  0  0  0
M  CHG  1  10  -1
M  END
> <s_m_entry_name>
Schrodinger_fragment_475

> <i_m_number_of_atoms>
19

> <r_m_molecular_weight>
198.20147

> <s_m_molecular_formula>
C7H6N2O3S1

> <r_epik_Ionization_Penalty>
  0.8496

> <r_epik_Ionization_Penalty_Charging>
  0.0052

> <r_epik_Ionization_Penalty_Neutral>
  0.8444

> <r_epik_State_Penalty>
  0.8565

> <i_epik_Tot_Q>
-1

> <r_epik_Metal_State_Penalty>
  3.6516

> <b_epik_Metal_Only>
0

> <s_m_entry_id>
4929

> <s_canvas_Unique_SMILES_Stereo>
c1cccc(c12)[N-]S(=O)(=O)NC2=O

$$$$
Schrodinger_fragment_381_b
                    3D
 Structure written by MMmdl.
 18 19  0  0  1  0            999 V2000
    3.8047    2.8388   -0.0112 C   0  0  0  0  0  0
    3.8383    1.4287    0.1626 C   0  0  0  0  0  0
    5.0616    0.7305    0.2517 C   0  0  0  0  0  0
    6.2807    1.4229    0.1580 C   0  0  0  0  0  0
    6.2767    2.8153   -0.0265 C   0  0  0  0  0  0
    5.0550    3.5114   -0.1100 C   0  0  0  0  0  0
    2.4774    3.5654   -0.0810 C   0  0  0  0  0  0
    1.3431    3.0027   -0.1156 N   0  0  0  0  0  0
    1.1547    1.3451   -0.1386 S   0  0  0  0  0  0
    2.6942    0.7398    0.2353 N   0  0  0  0  0  0
    2.6440    4.7938   -0.0761 O   0  5  0  0  0  0
    0.2847    0.9360    0.9725 O   0  0  0  0  0  0
    0.8748    0.9004   -1.5107 O   0  0  0  0  0  0
    5.0764   -0.3422    0.3870 H   0  0  0  0  0  0
    7.2166    0.8854    0.2239 H   0  0  0  0  0  0
    7.2117    3.3537   -0.1028 H   0  0  0  0  0  0
    5.0944    4.5819   -0.2506 H   0  0  0  0  0  0
    2.7513   -0.2654    0.3343 H   0  0  0  0  0  0
  1  2  2  0  0  0
  1  6  1  0  0  0
  1  7  1  0  0  0
  2  3  1  0  0  0
  2 10  1  0  0  0
  3  4  2  0  0  0
  3 14  1  0  0  0
  4  5  1  0  0  0
  4 15  1  0  0  0
  5  6  2  0  0  0
  5 16  1  0  0  0
  6 17  1  0  0  0
  7  8  2  0  0  0
  7 11  1  0  0  0
  8  9  1  0  0  0
  9 10  1  0  0  0
  9 12  2  0  0  0
  9 13  2  0  0  0
 10 18  1  0  0  0
M  CHG  1  11  -1
M  END
> <s_m_entry_name>
Schrodinger_fragment_475

> <i_m_number_of_atoms>
19

> <r_m_molecular_weight>
198.20147

> <s_m_molecular_formula>
C7H6N2O3S1

> <r_epik_Ionization_Penalty>
  0.0608

> <r_epik_Ionization_Penalty_Charging>
  0.0574

> <r_epik_Ionization_Penalty_Neutral>
  0.0033

> <r_epik_State_Penalty>
  2.3115

> <i_epik_Tot_Q>
-1

> <r_epik_Metal_State_Penalty>
  5.0543

> <b_epik_Metal_Only>
0

> <s_m_entry_id>
4930

> <s_canvas_Unique_SMILES_Stereo>
c1cccc(c12)NS(=O)(=O)N=C2[O-]

$$$$
Schrodinger_fragment_382
                    3D
 Structure written by MMmdl.
 21 22  0  0  1  0            999 V2000
    4.0129   -2.2468    0.0861 C   0  0  0  0  0  0
    4.0293   -3.6614   -0.0806 C   0  0  0  0  0  0
    5.2698   -4.3350   -0.1262 C   0  0  0  0  0  0
    6.4794   -3.6308    0.0118 C   0  0  0  0  0  0
    6.4647   -2.2375    0.1910 C   0  0  0  0  0  0
    5.2368   -1.5520    0.2256 C   0  0  0  0  0  0
    2.7130   -1.4653    0.1102 C   0  0  0  0  0  0
    1.5553   -2.1844   -0.2309 N   0  0  0  0  0  0
    1.4099   -3.8395    0.2354 S   0  0  0  0  0  0
    2.8878   -4.3516   -0.2200 N   0  5  0  0  0  0
    2.6960   -0.2407    0.2949 O   0  0  0  0  0  0
    1.2201   -3.8284    1.6948 O   0  0  0  0  0  0
    0.3430   -4.4284   -0.5898 O   0  0  0  0  0  0
    0.2941   -1.4296   -0.3435 C   0  0  0  0  0  0
    5.3093   -5.4095   -0.2637 H   0  0  0  0  0  0
    7.4217   -4.1616   -0.0203 H   0  0  0  0  0  0
    7.3935   -1.6941    0.2972 H   0  0  0  0  0  0
    5.2398   -0.4778    0.3562 H   0  0  0  0  0  0
   -0.4896   -2.0457   -0.7825 H   0  0  0  0  0  0
    0.4174   -0.5527   -0.9801 H   0  0  0  0  0  0
   -0.0408   -1.1069    0.6427 H   0  0  0  0  0  0
  1  2  2  0  0  0
  1  6  1  0  0  0
  1  7  1  0  0  0
  2  3  1  0  0  0
  2 10  1  0  0  0
  3  4  2  0  0  0
  3 15  1  0  0  0
  4  5  1  0  0  0
  4 16  1  0  0  0
  5  6  2  0  0  0
  5 17  1  0  0  0
  6 18  1  0  0  0
  7  8  1  0  0  0
  7 11  2  0  0  0
  8  9  1  0  0  0
  8 14  1  0  0  0
  9 10  1  0  0  0
  9 12  2  0  0  0
  9 13  2  0  0  0
 14 19  1  0  0  0
 14 20  1  0  0  0
 14 21  1  0  0  0
M  CHG  1  10  -1
M  END
> <s_m_entry_name>
Schrodinger_fragment_476

> <i_m_number_of_atoms>
22

> <r_m_molecular_weight>
212.22856

> <s_m_molecular_formula>
C8H8N2O3S1

> <r_epik_Ionization_Penalty>
  0.0130

> <r_epik_Ionization_Penalty_Charging>
  0.0130

> <r_epik_Ionization_Penalty_Neutral>
  0.0000

> <r_epik_State_Penalty>
  0.0130

> <i_epik_Tot_Q>
-1

> <r_epik_Metal_State_Penalty>
  0.0000

> <b_epik_Metal_Only>
0

> <s_m_entry_id>
4931

> <s_canvas_Unique_SMILES_Stereo>
O=C1N(C)S(=O)(=O)[N-]c(c12)cccc2

$$$$
Schrodinger_fragment_382_a
                    3D
 Structure written by MMmdl.
 22 23  0  0  1  0            999 V2000
    4.0104   -2.2637    0.1722 C   0  0  0  0  0  0
    4.0520   -3.6802    0.1014 C   0  0  0  0  0  0
    5.2919   -4.3454   -0.0133 C   0  0  0  0  0  0
    6.4919   -3.6122   -0.0562 C   0  0  0  0  0  0
    6.4598   -2.2083    0.0171 C   0  0  0  0  0  0
    5.2256   -1.5403    0.1331 C   0  0  0  0  0  0
    2.7092   -1.5168    0.3196 C   0  0  0  0  0  0
    1.5614   -2.1774   -0.1377 N   0  0  0  0  0  0
    1.3215   -3.8415    0.2054 S   0  0  0  0  0  0
    2.9290   -4.4126    0.1347 N   0  0  0  0  0  0
    2.6851   -0.3192    0.6361 O   0  0  0  0  0  0
    0.8659   -3.9897    1.5972 O   0  0  0  0  0  0
    0.5978   -4.4641   -0.9154 O   0  0  0  0  0  0
    0.3409   -1.3858   -0.3620 C   0  0  0  0  0  0
    5.3353   -5.4245   -0.0704 H   0  0  0  0  0  0
    7.4378   -4.1285   -0.1446 H   0  0  0  0  0  0
    7.3817   -1.6431   -0.0137 H   0  0  0  0  0  0
    5.2161   -0.4604    0.1922 H   0  0  0  0  0  0
    3.0219   -5.4190    0.0849 H   0  0  0  0  0  0
   -0.4121   -1.9799   -0.8802 H   0  0  0  0  0  0
    0.5502   -0.5076   -0.9741 H   0  0  0  0  0  0
   -0.0809   -1.0606    0.5898 H   0  0  0  0  0  0
  1  2  2  0  0  0
  1  6  1  0  0  0
  1  7  1  0  0  0
  2  3  1  0  0  0
  2 10  1  0  0  0
  3  4  2  0  0  0
  3 15  1  0  0  0
  4  5  1  0  0  0
  4 16  1  0  0  0
  5  6  2  0  0  0
  5 17  1  0  0  0
  6 18  1  0  0  0
  7  8  1  0  0  0
  7 11  2  0  0  0
  8  9  1  0  0  0
  8 14  1  0  0  0
  9 10  1  0  0  0
  9 12  2  0  0  0
  9 13  2  0  0  0
 10 19  1  0  0  0
 14 20  1  0  0  0
 14 21  1  0  0  0
 14 22  1  0  0  0
M  END
> <s_m_entry_name>
Schrodinger_fragment_476

> <i_m_number_of_atoms>
22

> <r_m_molecular_weight>
212.22856

> <s_m_molecular_formula>
C8H8N2O3S1

> <r_epik_Ionization_Penalty>
  2.2673

> <r_epik_Ionization_Penalty_Charging>
  0.0000

> <r_epik_Ionization_Penalty_Neutral>
  2.2673

> <r_epik_State_Penalty>
  2.2673

> <i_epik_Tot_Q>
0

> <r_epik_Metal_State_Penalty>
  6.3471

> <b_epik_Metal_Only>
0

> <s_m_entry_id>
4932

> <s_canvas_Unique_SMILES_Stereo>
O=C1N(C)S(=O)(=O)Nc(c12)cccc2

$$$$
Schrodinger_fragment_383
                    3D
 Structure written by MMmdl.
 25 26  0  0  1  0            999 V2000
    3.9782   -2.2900    0.2140 C   0  0  0  0  0  0
    4.0145   -3.7062    0.0748 C   0  0  0  0  0  0
    5.2772   -4.3314   -0.1092 C   0  0  0  0  0  0
    6.4666   -3.5816   -0.1453 C   0  0  0  0  0  0
    6.4222   -2.1871    0.0037 C   0  0  0  0  0  0
    5.1832   -1.5488    0.1841 C   0  0  0  0  0  0
    2.6874   -1.5489    0.4229 C   0  0  0  0  0  0
    1.5649   -2.1307   -0.1636 N   0  0  0  0  0  0
    1.2676   -3.7969    0.0600 S   0  0  0  0  0  0
    2.8740   -4.4466    0.1169 N   0  0  0  0  0  0
    2.6632   -0.3951    0.8730 O   0  0  0  0  0  0
    0.6706   -4.0059    1.3889 O   0  0  0  0  0  0
    0.6353   -4.3348   -1.1560 O   0  0  0  0  0  0
    0.3805   -1.2912   -0.4047 C   0  0  0  0  0  0
    2.9211   -5.9052    0.2164 C   0  0  0  0  0  0
    5.3687   -5.4004   -0.2323 H   0  0  0  0  0  0
    7.4154   -4.0806   -0.2870 H   0  0  0  0  0  0
    7.3355   -1.6077   -0.0209 H   0  0  0  0  0  0
    5.1614   -0.4733    0.2974 H   0  0  0  0  0  0
   -0.3445   -1.8205   -1.0235 H   0  0  0  0  0  0
    0.6517   -0.3705   -0.9231 H   0  0  0  0  0  0
   -0.1027   -1.0357    0.5393 H   0  0  0  0  0  0
    1.9313   -6.3234    0.4056 H   0  0  0  0  0  0
    3.5620   -6.2284    1.0374 H   0  0  0  0  0  0
    3.2829   -6.3478   -0.7121 H   0  0  0  0  0  0
  1  2  2  0  0  0
  1  6  1  0  0  0
  1  7  1  0  0  0
  2  3  1  0  0  0
  2 10  1  0  0  0
  3  4  2  0  0  0
  3 16  1  0  0  0
  4  5  1  0  0  0
  4 17  1  0  0  0
  5  6  2  0  0  0
  5 18  1  0  0  0
  6 19  1  0  0  0
  7  8  1  0  0  0
  7 11  2  0  0  0
  8  9  1  0  0  0
  8 14  1  0  0  0
  9 10  1  0  0  0
  9 12  2  0  0  0
  9 13  2  0  0  0
 10 15  1  0  0  0
 14 20  1  0  0  0
 14 21  1  0  0  0
 14 22  1  0  0  0
 15 23  1  0  0  0
 15 24  1  0  0  0
 15 25  1  0  0  0
M  END
> <s_m_entry_name>
Schrodinger_fragment_477

> <i_m_number_of_atoms>
25

> <r_m_molecular_weight>
226.25565

> <s_m_molecular_formula>
C9H10N2O3S1

> <r_epik_Ionization_Penalty>
  0.0000

> <r_epik_Ionization_Penalty_Charging>
  0.0000

> <r_epik_Ionization_Penalty_Neutral>
  0.0000

> <r_epik_State_Penalty>
  0.0000

> <i_epik_Tot_Q>
0

> <r_epik_Metal_State_Penalty>
  0.0000

> <b_epik_Metal_Only>
0

> <s_m_entry_id>
4933

> <s_canvas_Unique_SMILES_Stereo>
O=C1N(C)S(=O)(=O)N(C)c(c12)cccc2

$$$$
Schrodinger_fragment_384
                    3D
 Structure written by MMmdl.
 21 22  0  0  1  0            999 V2000
    3.9831   -2.2462   -0.0619 C   0  0  0  0  0  0
    4.0256   -3.6705    0.0105 C   0  0  0  0  0  0
    5.2793   -4.3306    0.1112 C   0  0  0  0  0  0
    6.4814   -3.6061    0.1590 C   0  0  0  0  0  0
    6.4508   -2.2059    0.1099 C   0  0  0  0  0  0
    5.2177   -1.5394    0.0022 C   0  0  0  0  0  0
    2.6636   -1.5199   -0.2041 C   0  0  0  0  0  0
    1.5273   -2.0526   -0.0712 N   0  0  0  0  0  0
    1.3412   -3.6520    0.3330 S   0  0  0  0  0  0
    2.8689   -4.3774   -0.0018 N   0  0  0  0  0  0
    2.8377   -0.3296   -0.5032 O   0  5  0  0  0  0
    1.1556   -3.7762    1.7851 O   0  0  0  0  0  0
    0.3783   -4.2631   -0.5943 O   0  0  0  0  0  0
    2.8637   -5.8369   -0.1156 C   0  0  0  0  0  0
    5.3525   -5.4064    0.1673 H   0  0  0  0  0  0
    7.4256   -4.1265    0.2410 H   0  0  0  0  0  0
    7.3717   -1.6403    0.1526 H   0  0  0  0  0  0
    5.2378   -0.4597   -0.0338 H   0  0  0  0  0  0
    1.8545   -6.2384   -0.2066 H   0  0  0  0  0  0
    3.3034   -6.2955    0.7704 H   0  0  0  0  0  0
    3.4173   -6.1648   -0.9958 H   0  0  0  0  0  0
  1  2  2  0  0  0
  1  6  1  0  0  0
  1  7  1  0  0  0
  2  3  1  0  0  0
  2 10  1  0  0  0
  3  4  2  0  0  0
  3 15  1  0  0  0
  4  5  1  0  0  0
  4 16  1  0  0  0
  5  6  2  0  0  0
  5 17  1  0  0  0
  6 18  1  0  0  0
  7  8  2  0  0  0
  7 11  1  0  0  0
  8  9  1  0  0  0
  9 10  1  0  0  0
  9 12  2  0  0  0
  9 13  2  0  0  0
 10 14  1  0  0  0
 14 19  1  0  0  0
 14 20  1  0  0  0
 14 21  1  0  0  0
M  CHG  1  11  -1
M  END
> <s_m_entry_name>
Schrodinger_fragment_478

> <i_m_number_of_atoms>
22

> <r_m_molecular_weight>
212.22856

> <s_m_molecular_formula>
C8H8N2O3S1

> <r_epik_Ionization_Penalty>
  0.0430

> <r_epik_Ionization_Penalty_Charging>
  0.0430

> <r_epik_Ionization_Penalty_Neutral>
  0.0000

> <r_epik_State_Penalty>
  0.0430

> <i_epik_Tot_Q>
-1

> <r_epik_Metal_State_Penalty>
  0.0000

> <b_epik_Metal_Only>
0

> <s_m_entry_id>
4934

> <s_canvas_Unique_SMILES_Stereo>
[O-]C1=NS(=O)(=O)N(C)c(c12)cccc2

$$$$
Schrodinger_fragment_384_a
                    3D
 Structure written by MMmdl.
 22 23  0  0  1  0            999 V2000
    4.0052   -2.2542   -0.1028 C   0  0  0  0  0  0
    4.0192   -3.6699    0.0241 C   0  0  0  0  0  0
    5.2597   -4.3298    0.2180 C   0  0  0  0  0  0
    6.4617   -3.6021    0.2871 C   0  0  0  0  0  0
    6.4445   -2.2031    0.1619 C   0  0  0  0  0  0
    5.2219   -1.5361   -0.0359 C   0  0  0  0  0  0
    2.7301   -1.5011   -0.3819 C   0  0  0  0  0  0
    1.5396   -2.0809    0.0268 N   0  0  0  0  0  0
    1.3755   -3.6808    0.5725 S   0  0  0  0  0  0
    2.8558   -4.3619   -0.0145 N   0  0  0  0  0  0
    2.7359   -0.3725   -0.8885 O   0  0  0  0  0  0
    1.4717   -3.7036    2.0414 O   0  0  0  0  0  0
    0.2578   -4.3178   -0.1437 O   0  0  0  0  0  0
    2.8352   -5.7907   -0.3286 C   0  0  0  0  0  0
    5.3131   -5.4026    0.3348 H   0  0  0  0  0  0
    7.3984   -4.1201    0.4403 H   0  0  0  0  0  0
    7.3680   -1.6420    0.2126 H   0  0  0  0  0  0
    5.2218   -0.4598   -0.1437 H   0  0  0  0  0  0
    0.6605   -1.7172   -0.3312 H   0  0  0  0  0  0
    1.8557   -6.1219   -0.6721 H   0  0  0  0  0  0
    3.0864   -6.3789    0.5545 H   0  0  0  0  0  0
    3.5408   -6.0367   -1.1228 H   0  0  0  0  0  0
  1  2  2  0  0  0
  1  6  1  0  0  0
  1  7  1  0  0  0
  2  3  1  0  0  0
  2 10  1  0  0  0
  3  4  2  0  0  0
  3 15  1  0  0  0
  4  5  1  0  0  0
  4 16  1  0  0  0
  5  6  2  0  0  0
  5 17  1  0  0  0
  6 18  1  0  0  0
  7  8  1  0  0  0
  7 11  2  0  0  0
  8  9  1  0  0  0
  8 19  1  0  0  0
  9 10  1  0  0  0
  9 12  2  0  0  0
  9 13  2  0  0  0
 10 14  1  0  0  0
 14 20  1  0  0  0
 14 21  1  0  0  0
 14 22  1  0  0  0
M  END
> <s_m_entry_name>
Schrodinger_fragment_478

> <i_m_number_of_atoms>
22

> <r_m_molecular_weight>
212.22856

> <s_m_molecular_formula>
C8H8N2O3S1

> <r_epik_Ionization_Penalty>
  1.5752

> <r_epik_Ionization_Penalty_Charging>
  0.0000

> <r_epik_Ionization_Penalty_Neutral>
  1.5752

> <r_epik_State_Penalty>
  1.5752

> <i_epik_Tot_Q>
0

> <r_epik_Metal_State_Penalty>
  5.6250

> <b_epik_Metal_Only>
0

> <s_m_entry_id>
4935

> <s_canvas_Unique_SMILES_Stereo>
O=C1NS(=O)(=O)N(C)c(c12)cccc2

$$$$
Schrodinger_fragment_385
                    3D
 Structure written by MMmdl.
 18 19  0  0  1  0            999 V2000
    3.6854    2.1455    0.0942 C   0  0  0  0  0  0
    3.6752    0.7403    0.0966 C   0  0  0  0  0  0
    4.8274    0.0580   -0.0247 N   0  0  0  0  0  0
    5.9512    0.7572   -0.1599 C   0  0  0  0  0  0
    6.0618    2.0805   -0.1807 N   0  0  0  0  0  0
    4.9253    2.7852   -0.0494 C   0  0  0  0  0  0
    2.3904    2.9160    0.2829 C   0  0  0  0  0  0
    1.1813    2.1270   -0.2536 C   0  0  0  0  0  0
    1.2321    0.6445    0.1381 C   0  0  0  0  0  0
    2.4398    0.0689    0.2466 N   0  0  0  0  0  0
    0.1853    0.0146    0.3144 O   0  0  0  0  0  0
    6.8655    0.1921   -0.2608 H   0  0  0  0  0  0
    5.0085    3.8622   -0.0519 H   0  0  0  0  0  0
    2.2592    3.1204    1.3467 H   0  0  0  0  0  0
    2.4560    3.8828   -0.2181 H   0  0  0  0  0  0
    0.2490    2.5782    0.0887 H   0  0  0  0  0  0
    1.1663    2.1728   -1.3432 H   0  0  0  0  0  0
    2.4774   -0.9212    0.4312 H   0  0  0  0  0  0
  1  2  2  0  0  0
  1  6  1  0  0  0
  1  7  1  0  0  0
  2  3  1  0  0  0
  2 10  1  0  0  0
  3  4  2  0  0  0
  4  5  1  0  0  0
  4 12  1  0  0  0
  5  6  2  0  0  0
  6 13  1  0  0  0
  7  8  1  0  0  0
  7 14  1  0  0  0
  7 15  1  0  0  0
  8  9  1  0  0  0
  8 16  1  0  0  0
  8 17  1  0  0  0
  9 10  1  0  0  0
  9 11  2  0  0  0
 10 18  1  0  0  0
M  END
> <s_m_entry_name>
Schrodinger_fragment_479

> <i_m_number_of_atoms>
18

> <r_m_molecular_weight>
149.15334

> <s_m_molecular_formula>
C7H7N3O1

> <r_epik_Ionization_Penalty>
  0.0000

> <r_epik_Ionization_Penalty_Charging>
  0.0000

> <r_epik_Ionization_Penalty_Neutral>
  0.0000

> <r_epik_State_Penalty>
  0.0000

> <i_epik_Tot_Q>
0

> <r_epik_Metal_State_Penalty>
  0.0070

> <b_epik_Metal_Only>
0

> <s_m_entry_id>
4936

> <s_canvas_Unique_SMILES_Stereo>
C1CC(=O)Nc(c12)ncnc2

$$$$
Schrodinger_fragment_385_a
                    3D
 Structure written by MMmdl.
 17 18  0  0  1  0            999 V2000
    3.6863    2.1800    0.0892 C   0  0  0  0  0  0
    3.6517    0.7848    0.0723 C   0  0  0  0  0  0
    4.7775    0.0733   -0.0397 N   0  0  0  0  0  0
    5.9233    0.7490   -0.1468 C   0  0  0  0  0  0
    6.0661    2.0719   -0.1469 N   0  0  0  0  0  0
    4.9413    2.8006   -0.0258 C   0  0  0  0  0  0
    2.3962    2.9524    0.2431 C   0  0  0  0  0  0
    1.1926    2.1052   -0.2120 C   0  0  0  0  0  0
    1.3121    0.6082    0.1110 C   0  0  0  0  0  0
    2.4587    0.0585    0.2000 N   0  0  0  0  0  0
    0.2467   -0.0044    0.2517 O   0  5  0  0  0  0
    6.8252    0.1634   -0.2404 H   0  0  0  0  0  0
    5.0441    3.8757   -0.0177 H   0  0  0  0  0  0
    2.2851    3.2061    1.2979 H   0  0  0  0  0  0
    2.4382    3.8912   -0.3102 H   0  0  0  0  0  0
    0.2721    2.5222    0.2025 H   0  0  0  0  0  0
    1.0959    2.1947   -1.2958 H   0  0  0  0  0  0
  1  2  2  0  0  0
  1  6  1  0  0  0
  1  7  1  0  0  0
  2  3  1  0  0  0
  2 10  1  0  0  0
  3  4  2  0  0  0
  4  5  1  0  0  0
  4 12  1  0  0  0
  5  6  2  0  0  0
  6 13  1  0  0  0
  7  8  1  0  0  0
  7 14  1  0  0  0
  7 15  1  0  0  0
  8  9  1  0  0  0
  8 16  1  0  0  0
  8 17  1  0  0  0
  9 10  2  0  0  0
  9 11  1  0  0  0
M  CHG  1  11  -1
M  END
> <s_m_entry_name>
Schrodinger_fragment_479

> <i_m_number_of_atoms>
18

> <r_m_molecular_weight>
149.15334

> <s_m_molecular_formula>
C7H7N3O1

> <r_epik_Ionization_Penalty>
  6.7131

> <r_epik_Ionization_Penalty_Charging>
  6.7130

> <r_epik_Ionization_Penalty_Neutral>
  0.0001

> <r_epik_State_Penalty>
  6.7130

> <i_epik_Tot_Q>
-1

> <r_epik_Metal_State_Penalty>
  2.6343

> <b_epik_Metal_Only>
1

> <s_m_entry_id>
4937

> <s_canvas_Unique_SMILES_Stereo>
C1CC([O-])=Nc(c12)ncnc2

$$$$
Schrodinger_fragment_386
                    3D
 Structure written by MMmdl.
 21 22  0  0  1  0            999 V2000
    3.8732   -0.6953   -0.0902 C   0  0  0  0  0  0
    3.8621   -2.0961    0.0436 C   0  0  0  0  0  0
    5.0315   -2.7490    0.2124 N   0  0  0  0  0  0
    6.1517   -2.0378    0.2501 C   0  0  0  0  0  0
    6.2550   -0.7204    0.1327 N   0  0  0  0  0  0
    5.1112   -0.0400   -0.0412 C   0  0  0  0  0  0
    2.5760    0.0562   -0.3014 C   0  0  0  0  0  0
    1.4230   -0.6578    0.4149 C   0  0  0  0  0  0
    1.4178   -2.1663    0.1377 C   0  0  0  0  0  0
    2.6116   -2.7974   -0.0168 N   0  0  0  0  0  0
    0.3277   -2.7514    0.0992 O   0  0  0  0  0  0
    2.6425   -4.2569   -0.1886 C   0  0  0  0  0  0
    7.0710   -2.5866    0.3883 H   0  0  0  0  0  0
    5.1867    1.0328   -0.1435 H   0  0  0  0  0  0
    2.6693    1.0789    0.0672 H   0  0  0  0  0  0
    2.3742    0.1214   -1.3719 H   0  0  0  0  0  0
    1.5131   -0.5220    1.4933 H   0  0  0  0  0  0
    0.4677   -0.2187    0.1245 H   0  0  0  0  0  0
    1.7358   -4.6560   -0.6448 H   0  0  0  0  0  0
    2.7784   -4.7418    0.7782 H   0  0  0  0  0  0
    3.4666   -4.5590   -0.8355 H   0  0  0  0  0  0
  1  2  2  0  0  0
  1  6  1  0  0  0
  1  7  1  0  0  0
  2  3  1  0  0  0
  2 10  1  0  0  0
  3  4  2  0  0  0
  4  5  1  0  0  0
  4 13  1  0  0  0
  5  6  2  0  0  0
  6 14  1  0  0  0
  7  8  1  0  0  0
  7 15  1  0  0  0
  7 16  1  0  0  0
  8  9  1  0  0  0
  8 17  1  0  0  0
  8 18  1  0  0  0
  9 10  1  0  0  0
  9 11  2  0  0  0
 10 12  1  0  0  0
 12 19  1  0  0  0
 12 20  1  0  0  0
 12 21  1  0  0  0
M  END
> <s_m_entry_name>
Schrodinger_fragment_480

> <i_m_number_of_atoms>
21

> <r_m_molecular_weight>
163.18043

> <s_m_molecular_formula>
C8H9N3O1

> <r_epik_Ionization_Penalty>
  0.0000

> <r_epik_Ionization_Penalty_Charging>
  0.0000

> <r_epik_Ionization_Penalty_Neutral>
  0.0000

> <r_epik_State_Penalty>
  0.0000

> <i_epik_Tot_Q>
0

> <r_epik_Metal_State_Penalty>
  0.0000

> <b_epik_Metal_Only>
0

> <s_m_entry_id>
4938

> <s_canvas_Unique_SMILES_Stereo>
C1CC(=O)N(C)c(c12)ncnc2

$$$$
Schrodinger_fragment_387
                    3D
 Structure written by MMmdl.
 15 16  0  0  1  0            999 V2000
    1.2499    2.1210    0.0301 C   0  0  0  0  0  0
    1.3380    0.7290    0.0304 C   0  0  0  0  0  0
    2.4953    0.0569    0.0269 N   0  0  0  0  0  0
    3.6541    0.7570    0.0228 C   0  0  0  0  0  0
    3.6557    2.1360    0.0222 C   0  0  0  0  0  0
    2.4463    2.8565    0.0259 C   0  0  0  0  0  0
    4.7969    0.0667    0.0193 N   0  0  0  0  0  0
    5.9271    0.7718    0.0152 C   0  0  0  0  0  0
    6.0438    2.0943    0.0143 N   0  0  0  0  0  0
    4.8954    2.7909    0.0178 C   0  0  0  0  0  0
    0.2336   -0.0575    0.0344 O   0  5  0  0  0  0
    0.2903    2.6309    0.0331 H   0  0  0  0  0  0
    2.4331    3.9379    0.0254 H   0  0  0  0  0  0
    6.8473    0.2060    0.0124 H   0  0  0  0  0  0
    4.9684    3.8690    0.0171 H   0  0  0  0  0  0
  1  2  1  0  0  0
  1  6  2  0  0  0
  1 12  1  0  0  0
  2  3  2  0  0  0
  2 11  1  0  0  0
  3  4  1  0  0  0
  4  5  2  0  0  0
  4  7  1  0  0  0
  5  6  1  0  0  0
  5 10  1  0  0  0
  6 13  1  0  0  0
  7  8  2  0  0  0
  8  9  1  0  0  0
  8 14  1  0  0  0
  9 10  2  0  0  0
 10 15  1  0  0  0
M  CHG  1  11  -1
M  END
> <s_m_entry_name>
Schrodinger_fragment_481

> <i_m_number_of_atoms>
16

> <r_m_molecular_weight>
147.1374

> <s_m_molecular_formula>
C7H5N3O1

> <r_epik_Ionization_Penalty>
  0.2505

> <r_epik_Ionization_Penalty_Charging>
  0.0013

> <r_epik_Ionization_Penalty_Neutral>
  0.2492

> <r_epik_State_Penalty>
  0.2492

> <i_epik_Tot_Q>
-1

> <r_epik_Metal_State_Penalty>
  0.1750

> <b_epik_Metal_Only>
0

> <s_m_entry_id>
4939

> <s_canvas_Unique_SMILES_Stereo>
c1ncnc(c12)nc([O-])cc2

$$$$
Schrodinger_fragment_387_a
                    3D
 Structure written by MMmdl.
 16 17  0  0  1  0            999 V2000
    1.2402    2.1201    0.0302 C   0  0  0  0  0  0
    1.2314    0.6558    0.0308 C   0  0  0  0  0  0
    2.4454    0.0666    0.0271 N   0  0  0  0  0  0
    3.6946    0.7343    0.0226 C   0  0  0  0  0  0
    3.6834    2.1369    0.0221 C   0  0  0  0  0  0
    2.3910    2.8230    0.0261 C   0  0  0  0  0  0
    4.8595    0.0592    0.0191 N   0  0  0  0  0  0
    5.9825    0.7736    0.0151 C   0  0  0  0  0  0
    6.0804    2.0988    0.0142 N   0  0  0  0  0  0
    4.9258    2.7898    0.0177 C   0  0  0  0  0  0
    0.1976   -0.0177    0.0345 O   0  0  0  0  0  0
    0.2952    2.6454    0.0331 H   0  0  0  0  0  0
    2.4724   -0.9400    0.0274 H   0  0  0  0  0  0
    2.3803    3.9045    0.0256 H   0  0  0  0  0  0
    6.9090    0.2196    0.0122 H   0  0  0  0  0  0
    4.9961    3.8677    0.0170 H   0  0  0  0  0  0
  1  2  1  0  0  0
  1  6  2  0  0  0
  1 12  1  0  0  0
  2  3  1  0  0  0
  2 11  2  0  0  0
  3  4  1  0  0  0
  3 13  1  0  0  0
  4  5  2  0  0  0
  4  7  1  0  0  0
  5  6  1  0  0  0
  5 10  1  0  0  0
  6 14  1  0  0  0
  7  8  2  0  0  0
  8  9  1  0  0  0
  8 15  1  0  0  0
  9 10  2  0  0  0
 10 16  1  0  0  0
M  END
> <s_m_entry_name>
Schrodinger_fragment_481

> <i_m_number_of_atoms>
16

> <r_m_molecular_weight>
147.1374

> <s_m_molecular_formula>
C7H5N3O1

> <r_epik_Ionization_Penalty>
  0.6334

> <r_epik_Ionization_Penalty_Charging>
  0.6334

> <r_epik_Ionization_Penalty_Neutral>
  0.0000

> <r_epik_State_Penalty>
  0.6334

> <i_epik_Tot_Q>
0

> <r_epik_Metal_State_Penalty>
  0.8080

> <b_epik_Metal_Only>
0

> <s_m_entry_id>
4940

> <s_canvas_Unique_SMILES_Stereo>
c1ncnc(c12)[nH]c(=O)cc2

$$$$
Schrodinger_fragment_388
                    3D
 Structure written by MMmdl.
 19 20  0  0  1  0            999 V2000
    1.4534   -0.6942    0.0297 C   0  0  0  0  0  0
    1.4258   -2.1561    0.0293 C   0  0  0  0  0  0
    2.6367   -2.7906    0.0257 N   0  0  0  0  0  0
    3.8988   -2.0963    0.0223 C   0  0  0  0  0  0
    3.8858   -0.6914    0.0228 C   0  0  0  0  0  0
    2.6039    0.0004    0.0266 C   0  0  0  0  0  0
    5.0854   -2.7445    0.0188 N   0  0  0  0  0  0
    6.1991   -2.0220    0.0158 C   0  0  0  0  0  0
    6.2832   -0.6981    0.0160 N   0  0  0  0  0  0
    5.1203   -0.0252    0.0195 C   0  0  0  0  0  0
    0.3566   -2.7798    0.0322 O   0  0  0  0  0  0
    2.6250   -4.2634    0.0253 C   0  0  0  0  0  0
    0.5133   -0.1605    0.0325 H   0  0  0  0  0  0
    2.5989    1.0821    0.0270 H   0  0  0  0  0  0
    7.1309   -2.5671    0.0130 H   0  0  0  0  0  0
    5.1775    1.0536    0.0196 H   0  0  0  0  0  0
    3.6137   -4.7192    0.0224 H   0  0  0  0  0  0
    2.1032   -4.6388   -0.8559 H   0  0  0  0  0  0
    2.1082   -4.6393    0.9093 H   0  0  0  0  0  0
  1  2  1  0  0  0
  1  6  2  0  0  0
  1 13  1  0  0  0
  2  3  1  0  0  0
  2 11  2  0  0  0
  3  4  1  0  0  0
  3 12  1  0  0  0
  4  5  2  0  0  0
  4  7  1  0  0  0
  5  6  1  0  0  0
  5 10  1  0  0  0
  6 14  1  0  0  0
  7  8  2  0  0  0
  8  9  1  0  0  0
  8 15  1  0  0  0
  9 10  2  0  0  0
 10 16  1  0  0  0
 12 17  1  0  0  0
 12 18  1  0  0  0
 12 19  1  0  0  0
M  END
> <s_m_entry_name>
Schrodinger_fragment_482

> <i_m_number_of_atoms>
19

> <r_m_molecular_weight>
161.16449

> <s_m_molecular_formula>
C8H7N3O1

> <r_epik_Ionization_Penalty>
  0.0000

> <r_epik_Ionization_Penalty_Charging>
  0.0000

> <r_epik_Ionization_Penalty_Neutral>
  0.0000

> <r_epik_State_Penalty>
  0.0000

> <i_epik_Tot_Q>
0

> <r_epik_Metal_State_Penalty>
  0.0000

> <b_epik_Metal_Only>
0

> <s_m_entry_id>
4941

> <s_canvas_Unique_SMILES_Stereo>
c1cc(=O)n(C)c(c12)ncnc2

$$$$
Schrodinger_fragment_389
                    3D
 Structure written by MMmdl.
 25 26  0  0  1  0            999 V2000
    2.3445    0.6812    0.4211 C   0  0  1  0  0  0
    3.6841   -0.0419    0.1183 C   0  0  0  0  0  0
    4.8493    0.7500    0.4974 N   0  0  0  0  0  0
    4.9231    2.0588    0.2438 C   0  0  0  0  0  0
    3.6533    2.7203   -0.2932 C   0  0  0  0  0  0
    1.1960    2.8691   -0.0343 C   0  0  0  0  0  0
   -0.0387    2.0818    0.4269 C   0  0  0  0  0  0
   -0.0388    0.6392   -0.1190 C   0  0  0  0  0  0
    5.9397    2.7145    0.4670 O   0  0  0  0  0  0
    2.0580    0.4273    1.4438 H   0  0  0  0  0  0
    3.7136   -1.0076    0.6245 H   0  0  0  0  0  0
    3.7730   -0.2554   -0.9486 H   0  0  0  0  0  0
    5.6543    0.2710    0.8796 H   0  0  0  0  0  0
    3.7127    3.7984   -0.1399 H   0  0  0  0  0  0
    3.5944    2.5490   -1.3685 H   0  0  0  0  0  0
    1.1727    2.9647   -1.1207 H   0  0  0  0  0  0
    1.1826    3.8815    0.3702 H   0  0  0  0  0  0
   -0.0644    2.0591    1.5175 H   0  0  0  0  0  0
   -0.9516    2.5945    0.1210 H   0  0  0  0  0  0
   -0.4815   -0.0270    0.6238 H   0  0  0  0  0  0
   -0.6718    0.5691   -1.0055 H   0  0  0  0  0  0
    2.4444    2.1798    0.3795 N   0  3  1  0  0  0
    2.5946    2.4269    1.3474 H   0  0  0  0  0  0
    1.3017    0.1633   -0.4708 N   0  0  0  0  0  0
    1.5249    0.3970   -1.4343 H   0  0  0  0  0  0
  1  2  1  0  0  0
  1 10  1  0  0  0
  1 22  1  0  0  0
  1 24  1  0  0  0
  2  3  1  0  0  0
  2 11  1  0  0  0
  2 12  1  0  0  0
  3  4  1  0  0  0
  3 13  1  0  0  0
  4  5  1  0  0  0
  4  9  2  0  0  0
  5 14  1  0  0  0
  5 15  1  0  0  0
  5 22  1  0  0  0
  6  7  1  0  0  0
  6 16  1  0  0  0
  6 17  1  0  0  0
  6 22  1  0  0  0
  7  8  1  0  0  0
  7 18  1  0  0  0
  7 19  1  0  0  0
  8 20  1  0  0  0
  8 21  1  0  0  0
  8 24  1  0  0  0
 22 23  1  0  0  0
 24 25  1  0  0  0
M  CHG  1  22   1
M  END
> <s_m_entry_name>
Schrodinger_fragment_483

> <i_m_number_of_atoms>
26

> <r_m_molecular_weight>
157.2171

> <s_m_molecular_formula>
C7H15N3O1

> <r_epik_Ionization_Penalty>
  0.0033

> <r_epik_Ionization_Penalty_Charging>
  0.0020

> <r_epik_Ionization_Penalty_Neutral>
  0.0013

> <r_epik_State_Penalty>
  0.0000

> <i_epik_Tot_Q>
1

> <r_epik_Metal_State_Penalty>
  0.6788

> <b_epik_Metal_Only>
0

> <s_m_entry_id>
4942

> <s_canvas_Unique_SMILES_Stereo>
C1NC(=O)C[N@H+]([C@H]12)CCCN2

$$$$
Schrodinger_fragment_389_a
                    3D
 Structure written by MMmdl.
 24 25  0  0  1  0            999 V2000
    2.3476    0.6862    0.4289 C   0  0  1  0  0  0
    3.6992    0.0083    0.0566 C   0  0  0  0  0  0
    4.8660    0.7656    0.5180 N   0  0  0  0  0  0
    4.8840    2.0192    0.3160 C   0  0  0  0  0  0
    3.6532    2.6821   -0.3169 C   0  0  0  0  0  0
    1.1936    2.8700   -0.0573 C   0  0  0  0  0  0
   -0.0380    2.0949    0.4284 C   0  0  0  0  0  0
   -0.0388    0.6393   -0.0819 C   0  0  0  0  0  0
    5.8310    2.7435    0.6318 O   0  5  0  0  0  0
    2.0935    0.4250    1.4588 H   0  0  0  0  0  0
    3.7187   -0.9986    0.4778 H   0  0  0  0  0  0
    3.7717   -0.1306   -1.0253 H   0  0  0  0  0  0
    3.7078    3.7678   -0.2139 H   0  0  0  0  0  0
    3.6170    2.4633   -1.3856 H   0  0  0  0  0  0
    1.1644    2.9454   -1.1453 H   0  0  0  0  0  0
    1.1884    3.8894    0.3296 H   0  0  0  0  0  0
   -0.0550    2.0976    1.5194 H   0  0  0  0  0  0
   -0.9531    2.6000    0.1166 H   0  0  0  0  0  0
   -0.4624   -0.0110    0.6855 H   0  0  0  0  0  0
   -0.6869    0.5439   -0.9548 H   0  0  0  0  0  0
    2.4372    2.1791    0.3623 N   0  3  1  0  0  0
    2.6187    2.4368    1.3209 H   0  0  0  0  0  0
    1.2979    0.1630   -0.4465 N   0  0  0  0  0  0
    1.5146    0.3918   -1.4121 H   0  0  0  0  0  0
  1  2  1  0  0  0
  1 10  1  0  0  0
  1 21  1  0  0  0
  1 23  1  0  0  0
  2  3  1  0  0  0
  2 11  1  0  0  0
  2 12  1  0  0  0
  3  4  2  0  0  0
  4  5  1  0  0  0
  4  9  1  0  0  0
  5 13  1  0  0  0
  5 14  1  0  0  0
  5 21  1  0  0  0
  6  7  1  0  0  0
  6 15  1  0  0  0
  6 16  1  0  0  0
  6 21  1  0  0  0
  7  8  1  0  0  0
  7 17  1  0  0  0
  7 18  1  0  0  0
  8 19  1  0  0  0
  8 20  1  0  0  0
  8 23  1  0  0  0
 21 22  1  0  0  0
 23 24  1  0  0  0
M  CHG  2   9  -1  21   1
M  END
> <s_m_entry_name>
Schrodinger_fragment_483

> <i_m_number_of_atoms>
26

> <r_m_molecular_weight>
157.2171

> <s_m_molecular_formula>
C7H15N3O1

> <r_epik_Ionization_Penalty>
  3.6444

> <r_epik_Ionization_Penalty_Charging>
  3.6437

> <r_epik_Ionization_Penalty_Neutral>
  0.0006

> <r_epik_State_Penalty>
  3.6408

> <i_epik_Tot_Q>
0

> <r_epik_Metal_State_Penalty>
  0.2268

> <b_epik_Metal_Only>
1

> <s_m_entry_id>
4943

> <s_canvas_Unique_SMILES_Stereo>
C1N=C([O-])C[N@H+]([C@H]12)CCCN2

$$$$
Schrodinger_fragment_390
                    3D
 Structure written by MMmdl.
 25 26  0  0  1  0            999 V2000
    2.4017    0.7403   -0.2660 C   0  0  2  0  0  0
    3.6508   -0.0568    0.1708 C   0  0  0  0  0  0
    4.8780    0.7358    0.1465 N   0  0  0  0  0  0
    4.9444    2.0693    0.0523 C   0  0  0  0  0  0
    3.6411    2.8698   -0.0663 C   0  0  0  0  0  0
    1.1846    2.8687    0.0785 C   0  0  0  0  0  0
   -0.0510    2.0424    0.4602 C   0  0  0  0  0  0
   -0.0153    0.6809   -0.2437 C   0  0  0  0  0  0
    6.0278    2.6521    0.0551 O   0  0  0  0  0  0
    2.4002    0.8373   -1.3543 H   0  0  0  0  0  0
    3.5276   -0.4271    1.1902 H   0  0  0  0  0  0
    3.7789   -0.9353   -0.4630 H   0  0  0  0  0  0
    5.7501    0.2277    0.2150 H   0  0  0  0  0  0
    3.7186    3.7693    0.5452 H   0  0  0  0  0  0
    3.5479    3.1963   -1.1027 H   0  0  0  0  0  0
    1.1292    3.1379   -0.9773 H   0  0  0  0  0  0
    1.2006    3.8018    0.6423 H   0  0  0  0  0  0
   -0.0960    1.9056    1.5418 H   0  0  0  0  0  0
   -0.9571    2.5822    0.1823 H   0  0  0  0  0  0
   -0.8802    0.0826    0.0484 H   0  0  0  0  0  0
   -0.0606    0.7972   -1.3288 H   0  0  0  0  0  0
    2.4315    2.1048    0.3285 N   0  3  1  0  0  0
    2.5100    1.9670    1.3243 H   0  0  0  0  0  0
    1.2107   -0.0045    0.1509 N   0  0  0  0  0  0
    1.2381   -0.9238   -0.2845 H   0  0  0  0  0  0
  1  2  1  0  0  0
  1 10  1  0  0  0
  1 22  1  0  0  0
  1 24  1  0  0  0
  2  3  1  0  0  0
  2 11  1  0  0  0
  2 12  1  0  0  0
  3  4  1  0  0  0
  3 13  1  0  0  0
  4  5  1  0  0  0
  4  9  2  0  0  0
  5 14  1  0  0  0
  5 15  1  0  0  0
  5 22  1  0  0  0
  6  7  1  0  0  0
  6 16  1  0  0  0
  6 17  1  0  0  0
  6 22  1  0  0  0
  7  8  1  0  0  0
  7 18  1  0  0  0
  7 19  1  0  0  0
  8 20  1  0  0  0
  8 21  1  0  0  0
  8 24  1  0  0  0
 22 23  1  0  0  0
 24 25  1  0  0  0
M  CHG  1  22   1
M  END
> <s_m_entry_name>
Schrodinger_fragment_484

> <i_m_number_of_atoms>
26

> <r_m_molecular_weight>
157.2171

> <s_m_molecular_formula>
C7H15N3O1

> <r_epik_Ionization_Penalty>
  0.0033

> <r_epik_Ionization_Penalty_Charging>
  0.0020

> <r_epik_Ionization_Penalty_Neutral>
  0.0013

> <r_epik_State_Penalty>
  0.0000

> <i_epik_Tot_Q>
1

> <r_epik_Metal_State_Penalty>
  0.6788

> <b_epik_Metal_Only>
0

> <s_m_entry_id>
4944

> <s_canvas_Unique_SMILES_Stereo>
C1NC(=O)C[N@H+]([C@@H]12)CCCN2

$$$$
Schrodinger_fragment_390_a
                    3D
 Structure written by MMmdl.
 24 25  0  0  1  0            999 V2000
    2.3975    0.7520   -0.2855 C   0  0  2  0  0  0
    3.6502   -0.0239    0.1889 C   0  0  0  0  0  0
    4.8977    0.7490    0.1925 N   0  0  0  0  0  0
    4.9204    2.0178    0.1026 C   0  0  0  0  0  0
    3.6340    2.8381   -0.0942 C   0  0  0  0  0  0
    1.1792    2.8746    0.0886 C   0  0  0  0  0  0
   -0.0537    2.0452    0.4691 C   0  0  0  0  0  0
   -0.0162    0.6882   -0.2438 C   0  0  0  0  0  0
    5.9757    2.6544    0.1501 O   0  5  0  0  0  0
    2.3990    0.8436   -1.3747 H   0  0  0  0  0  0
    3.4844   -0.4050    1.1994 H   0  0  0  0  0  0
    3.7735   -0.9095   -0.4376 H   0  0  0  0  0  0
    3.6965    3.7668    0.4764 H   0  0  0  0  0  0
    3.5534    3.1189   -1.1460 H   0  0  0  0  0  0
    1.1175    3.1558   -0.9637 H   0  0  0  0  0  0
    1.2026    3.8006    0.6639 H   0  0  0  0  0  0
   -0.0930    1.9013    1.5499 H   0  0  0  0  0  0
   -0.9619    2.5852    0.1983 H   0  0  0  0  0  0
   -0.8774    0.0846    0.0474 H   0  0  0  0  0  0
   -0.0638    0.8117   -1.3278 H   0  0  0  0  0  0
    2.4226    2.1012    0.3206 N   0  3  1  0  0  0
    2.5402    1.9515    1.3095 H   0  0  0  0  0  0
    1.2142    0.0060    0.1422 N   0  0  0  0  0  0
    1.2450   -0.9130   -0.2935 H   0  0  0  0  0  0
  1  2  1  0  0  0
  1 10  1  0  0  0
  1 21  1  0  0  0
  1 23  1  0  0  0
  2  3  1  0  0  0
  2 11  1  0  0  0
  2 12  1  0  0  0
  3  4  2  0  0  0
  4  5  1  0  0  0
  4  9  1  0  0  0
  5 13  1  0  0  0
  5 14  1  0  0  0
  5 21  1  0  0  0
  6  7  1  0  0  0
  6 15  1  0  0  0
  6 16  1  0  0  0
  6 21  1  0  0  0
  7  8  1  0  0  0
  7 17  1  0  0  0
  7 18  1  0  0  0
  8 19  1  0  0  0
  8 20  1  0  0  0
  8 23  1  0  0  0
 21 22  1  0  0  0
 23 24  1  0  0  0
M  CHG  2   9  -1  21   1
M  END
> <s_m_entry_name>
Schrodinger_fragment_484

> <i_m_number_of_atoms>
26

> <r_m_molecular_weight>
157.2171

> <s_m_molecular_formula>
C7H15N3O1

> <r_epik_Ionization_Penalty>
  3.6444

> <r_epik_Ionization_Penalty_Charging>
  3.6437

> <r_epik_Ionization_Penalty_Neutral>
  0.0006

> <r_epik_State_Penalty>
  3.6408

> <i_epik_Tot_Q>
0

> <r_epik_Metal_State_Penalty>
  0.2268

> <b_epik_Metal_Only>
1

> <s_m_entry_id>
4945

> <s_canvas_Unique_SMILES_Stereo>
C1N=C([O-])C[N@H+]([C@@H]12)CCCN2

$$$$
Schrodinger_fragment_391
                    3D
 Structure written by MMmdl.
 25 26  0  0  1  0            999 V2000
    2.4587    0.7850    0.6198 C   0  0  1  0  0  0
    3.5589   -0.0570   -0.0573 C   0  0  0  0  0  0
    4.7833    0.7183   -0.2815 N   0  0  0  0  0  0
    4.9023    2.0520   -0.1746 C   0  0  0  0  0  0
    3.6584    2.8819    0.1844 C   0  0  0  0  0  0
    1.1676    2.8626    0.2919 C   0  0  0  0  0  0
   -0.0730    2.0558   -0.1483 C   0  0  0  0  0  0
    0.2134    0.5524   -0.3499 C   0  0  0  0  0  0
    5.9819    2.6101   -0.3648 O   0  0  0  0  0  0
    2.7470    0.9339    1.6626 H   0  0  0  0  0  0
    3.7951   -0.9317    0.5501 H   0  0  0  0  0  0
    3.2168   -0.4305   -1.0239 H   0  0  0  0  0  0
    5.6157    0.1944   -0.5192 H   0  0  0  0  0  0
    3.7340    3.1913    1.2273 H   0  0  0  0  0  0
    3.6468    3.7885   -0.4214 H   0  0  0  0  0  0
    1.1691    3.8434   -0.1847 H   0  0  0  0  0  0
    1.1349    3.0355    1.3685 H   0  0  0  0  0  0
   -0.8618    2.1891    0.5933 H   0  0  0  0  0  0
   -0.4720    2.4641   -1.0779 H   0  0  0  0  0  0
   -0.7137   -0.0197   -0.2819 H   0  0  0  0  0  0
    0.6167    0.3662   -1.3477 H   0  0  0  0  0  0
    2.4056    2.1218   -0.0289 N   0  3  2  0  0  0
    2.3897    1.9487   -1.0219 H   0  0  0  0  0  0
    1.1632    0.0903    0.6582 N   0  0  0  0  0  0
    1.3174   -0.9112    0.5692 H   0  0  0  0  0  0
  1  2  1  0  0  0
  1 10  1  0  0  0
  1 22  1  0  0  0
  1 24  1  0  0  0
  2  3  1  0  0  0
  2 11  1  0  0  0
  2 12  1  0  0  0
  3  4  1  0  0  0
  3 13  1  0  0  0
  4  5  1  0  0  0
  4  9  2  0  0  0
  5 14  1  0  0  0
  5 15  1  0  0  0
  5 22  1  0  0  0
  6  7  1  0  0  0
  6 16  1  0  0  0
  6 17  1  0  0  0
  6 22  1  0  0  0
  7  8  1  0  0  0
  7 18  1  0  0  0
  7 19  1  0  0  0
  8 20  1  0  0  0
  8 21  1  0  0  0
  8 24  1  0  0  0
 22 23  1  0  0  0
 24 25  1  0  0  0
M  CHG  1  22   1
M  END
> <s_m_entry_name>
Schrodinger_fragment_485

> <i_m_number_of_atoms>
26

> <r_m_molecular_weight>
157.2171

> <s_m_molecular_formula>
C7H15N3O1

> <r_epik_Ionization_Penalty>
  0.0033

> <r_epik_Ionization_Penalty_Charging>
  0.0020

> <r_epik_Ionization_Penalty_Neutral>
  0.0013

> <r_epik_State_Penalty>
  0.0000

> <i_epik_Tot_Q>
1

> <r_epik_Metal_State_Penalty>
  0.6788

> <b_epik_Metal_Only>
0

> <s_m_entry_id>
4946

> <s_canvas_Unique_SMILES_Stereo>
C1NC(=O)C[N@@H+]([C@H]12)CCCN2

$$$$
Schrodinger_fragment_391_a
                    3D
 Structure written by MMmdl.
 24 25  0  0  1  0            999 V2000
    2.4544    0.7984    0.6419 C   0  0  1  0  0  0
    3.5458   -0.0216   -0.0796 C   0  0  0  0  0  0
    4.7883    0.7279   -0.3286 N   0  0  0  0  0  0
    4.8655    1.9983   -0.2277 C   0  0  0  0  0  0
    3.6549    2.8522    0.2032 C   0  0  0  0  0  0
    1.1607    2.8718    0.2820 C   0  0  0  0  0  0
   -0.0786    2.0570   -0.1447 C   0  0  0  0  0  0
    0.2209    0.5573   -0.3526 C   0  0  0  0  0  0
    5.9118    2.6078   -0.4614 O   0  5  0  0  0  0
    2.7476    0.9386    1.6850 H   0  0  0  0  0  0
    3.7704   -0.9112    0.5123 H   0  0  0  0  0  0
    3.1623   -0.3917   -1.0330 H   0  0  0  0  0  0
    3.7531    3.1240    1.2557 H   0  0  0  0  0  0
    3.6348    3.7824   -0.3678 H   0  0  0  0  0  0
    1.1677    3.8409   -0.2177 H   0  0  0  0  0  0
    1.1245    3.0688    1.3543 H   0  0  0  0  0  0
   -0.8600    2.1816    0.6061 H   0  0  0  0  0  0
   -0.4908    2.4639   -1.0692 H   0  0  0  0  0  0
   -0.7016   -0.0234   -0.2991 H   0  0  0  0  0  0
    0.6398    0.3827   -1.3458 H   0  0  0  0  0  0
    2.3958    2.1193   -0.0180 N   0  3  2  0  0  0
    2.4182    1.9272   -1.0064 H   0  0  0  0  0  0
    1.1641    0.0984    0.6635 N   0  0  0  0  0  0
    1.3323   -0.9001    0.5653 H   0  0  0  0  0  0
  1  2  1  0  0  0
  1 10  1  0  0  0
  1 21  1  0  0  0
  1 23  1  0  0  0
  2  3  1  0  0  0
  2 11  1  0  0  0
  2 12  1  0  0  0
  3  4  2  0  0  0
  4  5  1  0  0  0
  4  9  1  0  0  0
  5 13  1  0  0  0
  5 14  1  0  0  0
  5 21  1  0  0  0
  6  7  1  0  0  0
  6 15  1  0  0  0
  6 16  1  0  0  0
  6 21  1  0  0  0
  7  8  1  0  0  0
  7 17  1  0  0  0
  7 18  1  0  0  0
  8 19  1  0  0  0
  8 20  1  0  0  0
  8 23  1  0  0  0
 21 22  1  0  0  0
 23 24  1  0  0  0
M  CHG  2   9  -1  21   1
M  END
> <s_m_entry_name>
Schrodinger_fragment_485

> <i_m_number_of_atoms>
26

> <r_m_molecular_weight>
157.2171

> <s_m_molecular_formula>
C7H15N3O1

> <r_epik_Ionization_Penalty>
  3.6444

> <r_epik_Ionization_Penalty_Charging>
  3.6437

> <r_epik_Ionization_Penalty_Neutral>
  0.0006

> <r_epik_State_Penalty>
  3.6408

> <i_epik_Tot_Q>
0

> <r_epik_Metal_State_Penalty>
  0.2268

> <b_epik_Metal_Only>
1

> <s_m_entry_id>
4947

> <s_canvas_Unique_SMILES_Stereo>
C1N=C([O-])C[N@@H+]([C@H]12)CCCN2

$$$$
Schrodinger_fragment_392
                    3D
 Structure written by MMmdl.
 25 26  0  0  1  0            999 V2000
    2.3738    0.5353   -0.4029 C   0  0  2  0  0  0
    3.2531    0.2055    0.8290 C   0  0  0  0  0  0
    4.5203    0.9316    0.8372 N   0  0  0  0  0  0
    4.8174    1.9960    0.0821 C   0  0  0  0  0  0
    3.7777    2.5153   -0.9221 C   0  0  0  0  0  0
    1.5831    2.8096    0.2067 C   0  0  0  0  0  0
    0.1582    2.2460    0.2950 C   0  0  0  0  0  0
    0.1885    0.7661    0.6979 C   0  0  0  0  0  0
    5.9095    2.5540    0.1788 O   0  0  0  0  0  0
    2.8136    0.0180   -1.2582 H   0  0  0  0  0  0
    2.7455    0.4513    1.7611 H   0  0  0  0  0  0
    3.4533   -0.8659    0.8659 H   0  0  0  0  0  0
    5.2280    0.6041    1.4814 H   0  0  0  0  0  0
    3.7792    3.6057   -0.9271 H   0  0  0  0  0  0
    4.1122    2.2076   -1.9130 H   0  0  0  0  0  0
    1.5482    3.8433   -0.1387 H   0  0  0  0  0  0
    2.0424    2.8241    1.1959 H   0  0  0  0  0  0
   -0.4184    2.8156    1.0250 H   0  0  0  0  0  0
   -0.3572    2.3678   -0.6590 H   0  0  0  0  0  0
    0.5649    0.6544    1.7156 H   0  0  0  0  0  0
   -0.8241    0.3586    0.7030 H   0  0  0  0  0  0
    2.4007    1.9918   -0.7233 N   0  3  2  0  0  0
    1.9658    2.0997   -1.6261 H   0  0  0  0  0  0
    1.0084    0.0108   -0.2504 N   0  0  0  0  0  0
    0.5507   -0.0192   -1.1581 H   0  0  0  0  0  0
  1  2  1  0  0  0
  1 10  1  0  0  0
  1 22  1  0  0  0
  1 24  1  0  0  0
  2  3  1  0  0  0
  2 11  1  0  0  0
  2 12  1  0  0  0
  3  4  1  0  0  0
  3 13  1  0  0  0
  4  5  1  0  0  0
  4  9  2  0  0  0
  5 14  1  0  0  0
  5 15  1  0  0  0
  5 22  1  0  0  0
  6  7  1  0  0  0
  6 16  1  0  0  0
  6 17  1  0  0  0
  6 22  1  0  0  0
  7  8  1  0  0  0
  7 18  1  0  0  0
  7 19  1  0  0  0
  8 20  1  0  0  0
  8 21  1  0  0  0
  8 24  1  0  0  0
 22 23  1  0  0  0
 24 25  1  0  0  0
M  CHG  1  22   1
M  END
> <s_m_entry_name>
Schrodinger_fragment_486

> <i_m_number_of_atoms>
26

> <r_m_molecular_weight>
157.2171

> <s_m_molecular_formula>
C7H15N3O1

> <r_epik_Ionization_Penalty>
  0.0033

> <r_epik_Ionization_Penalty_Charging>
  0.0020

> <r_epik_Ionization_Penalty_Neutral>
  0.0013

> <r_epik_State_Penalty>
  0.0000

> <i_epik_Tot_Q>
1

> <r_epik_Metal_State_Penalty>
  0.6788

> <b_epik_Metal_Only>
0

> <s_m_entry_id>
4948

> <s_canvas_Unique_SMILES_Stereo>
C1NC(=O)C[N@@H+]([C@@H]12)CCCN2

$$$$
Schrodinger_fragment_392_a
                    3D
 Structure written by MMmdl.
 24 25  0  0  1  0            999 V2000
    2.3751    0.5425   -0.4159 C   0  0  2  0  0  0
    3.2526    0.2508    0.8308 C   0  0  0  0  0  0
    4.5530    0.9279    0.8354 N   0  0  0  0  0  0
    4.7915    1.9487    0.1147 C   0  0  0  0  0  0
    3.7702    2.4924   -0.9063 C   0  0  0  0  0  0
    1.5753    2.8085    0.2107 C   0  0  0  0  0  0
    0.1511    2.2448    0.2941 C   0  0  0  0  0  0
    0.1863    0.7632    0.6888 C   0  0  0  0  0  0
    5.8702    2.5440    0.1744 O   0  5  0  0  0  0
    2.8191    0.0223   -1.2679 H   0  0  0  0  0  0
    2.7296    0.5200    1.7486 H   0  0  0  0  0  0
    3.4070   -0.8277    0.8973 H   0  0  0  0  0  0
    3.7781    3.5842   -0.9082 H   0  0  0  0  0  0
    4.0998    2.1919   -1.9022 H   0  0  0  0  0  0
    1.5421    3.8440   -0.1296 H   0  0  0  0  0  0
    2.0352    2.8174    1.1997 H   0  0  0  0  0  0
   -0.4272    2.8096    1.0266 H   0  0  0  0  0  0
   -0.3621    2.3706   -0.6605 H   0  0  0  0  0  0
    0.5602    0.6482    1.7068 H   0  0  0  0  0  0
   -0.8242    0.3512    0.6882 H   0  0  0  0  0  0
    2.3868    1.9933   -0.7256 N   0  3  2  0  0  0
    1.9661    2.1095   -1.6327 H   0  0  0  0  0  0
    1.0132    0.0152   -0.2595 N   0  0  0  0  0  0
    0.5568   -0.0164   -1.1672 H   0  0  0  0  0  0
  1  2  1  0  0  0
  1 10  1  0  0  0
  1 21  1  0  0  0
  1 23  1  0  0  0
  2  3  1  0  0  0
  2 11  1  0  0  0
  2 12  1  0  0  0
  3  4  2  0  0  0
  4  5  1  0  0  0
  4  9  1  0  0  0
  5 13  1  0  0  0
  5 14  1  0  0  0
  5 21  1  0  0  0
  6  7  1  0  0  0
  6 15  1  0  0  0
  6 16  1  0  0  0
  6 21  1  0  0  0
  7  8  1  0  0  0
  7 17  1  0  0  0
  7 18  1  0  0  0
  8 19  1  0  0  0
  8 20  1  0  0  0
  8 23  1  0  0  0
 21 22  1  0  0  0
 23 24  1  0  0  0
M  CHG  2   9  -1  21   1
M  END
> <s_m_entry_name>
Schrodinger_fragment_486

> <i_m_number_of_atoms>
26

> <r_m_molecular_weight>
157.2171

> <s_m_molecular_formula>
C7H15N3O1

> <r_epik_Ionization_Penalty>
  3.6444

> <r_epik_Ionization_Penalty_Charging>
  3.6437

> <r_epik_Ionization_Penalty_Neutral>
  0.0006

> <r_epik_State_Penalty>
  3.6408

> <i_epik_Tot_Q>
0

> <r_epik_Metal_State_Penalty>
  0.2268

> <b_epik_Metal_Only>
1

> <s_m_entry_id>
4949

> <s_canvas_Unique_SMILES_Stereo>
C1N=C([O-])C[N@@H+]([C@@H]12)CCCN2

$$$$
Schrodinger_fragment_393
                    3D
 Structure written by MMmdl.
 28 29  0  0  1  0            999 V2000
    2.4278   -2.3235    0.3438 C   0  0  1  0  0  0
    3.7821   -2.9189   -0.1493 C   0  0  0  0  0  0
    4.9298   -2.1939    0.3861 N   0  0  0  0  0  0
    4.9483   -0.8613    0.4271 C   0  0  0  0  0  0
    3.6912   -0.1508   -0.0919 C   0  0  0  0  0  0
    1.2550   -0.2032   -0.3503 C   0  0  0  0  0  0
    0.0145   -0.8223    0.2919 C   0  0  0  0  0  0
   -0.0655   -2.3365    0.0358 C   0  0  0  0  0  0
    5.9098   -0.2277    0.8580 O   0  0  0  0  0  0
    1.1834   -4.4256   -0.2098 C   0  0  0  0  0  0
    2.3405   -2.5548    1.4077 H   0  0  0  0  0  0
    3.8837   -3.9608    0.1544 H   0  0  0  0  0  0
    3.8367   -2.9003   -1.2391 H   0  0  0  0  0  0
    5.7263   -2.7176    0.7228 H   0  0  0  0  0  0
    3.6738    0.8738    0.2830 H   0  0  0  0  0  0
    3.7813   -0.0853   -1.1776 H   0  0  0  0  0  0
    1.2533   -0.3416   -1.4335 H   0  0  0  0  0  0
    1.2679    0.8725   -0.1657 H   0  0  0  0  0  0
    0.0357   -0.6340    1.3666 H   0  0  0  0  0  0
   -0.8891   -0.3353   -0.0769 H   0  0  0  0  0  0
   -0.4745   -2.8204    0.9241 H   0  0  0  0  0  0
   -0.7697   -2.5364   -0.7729 H   0  0  0  0  0  0
    0.2761   -4.8137   -0.6740 H   0  0  0  0  0  0
    1.1831   -4.7390    0.8348 H   0  0  0  0  0  0
    2.0187   -4.9104   -0.7138 H   0  0  0  0  0  0
    2.4204   -0.8361    0.2631 N   0  0  0  0  0  0
    1.2432   -2.9474   -0.3284 N   0  3  2  0  0  0
    1.3609   -2.7658   -1.3138 H   0  0  0  0  0  0
  1  2  1  0  0  0
  1 11  1  0  0  0
  1 26  1  0  0  0
  1 27  1  0  0  0
  2  3  1  0  0  0
  2 12  1  0  0  0
  2 13  1  0  0  0
  3  4  1  0  0  0
  3 14  1  0  0  0
  4  5  1  0  0  0
  4  9  2  0  0  0
  5 15  1  0  0  0
  5 16  1  0  0  0
  5 26  1  0  0  0
  6  7  1  0  0  0
  6 17  1  0  0  0
  6 18  1  0  0  0
  6 26  1  0  0  0
  7  8  1  0  0  0
  7 19  1  0  0  0
  7 20  1  0  0  0
  8 21  1  0  0  0
  8 22  1  0  0  0
  8 27  1  0  0  0
 10 23  1  0  0  0
 10 24  1  0  0  0
 10 25  1  0  0  0
 10 27  1  0  0  0
 27 28  1  0  0  0
M  CHG  1  27   1
M  END
> <s_m_entry_name>
Schrodinger_fragment_487

> <i_m_number_of_atoms>
29

> <r_m_molecular_weight>
171.24419

> <s_m_molecular_formula>
C8H17N3O1

> <r_epik_Ionization_Penalty>
  0.0059

> <r_epik_Ionization_Penalty_Charging>
  0.0043

> <r_epik_Ionization_Penalty_Neutral>
  0.0016

> <r_epik_State_Penalty>
  0.1395

> <i_epik_Tot_Q>
1

> <r_epik_Metal_State_Penalty>
  0.1970

> <b_epik_Metal_Only>
0

> <s_m_entry_id>
4950

> <s_canvas_Unique_SMILES_Stereo>
C[N@H+]1CCCN([C@@H]12)CC(=O)NC2

$$$$
Schrodinger_fragment_393_a
                    3D
 Structure written by MMmdl.
 28 29  0  0  1  0            999 V2000
    2.3947   -2.3053    0.4201 C   0  0  1  0  0  0
    3.7610   -2.9848    0.1030 C   0  0  0  0  0  0
    4.9020   -2.1791    0.5237 N   0  0  0  0  0  0
    4.9525   -0.8687    0.2818 C   0  0  0  0  0  0
    3.6859   -0.2427   -0.2996 C   0  0  0  0  0  0
    1.2292   -0.1520   -0.1689 C   0  0  0  0  0  0
   -0.0160   -0.8580    0.3773 C   0  0  0  0  0  0
   -0.0176   -2.3638    0.0562 C   0  0  0  0  0  0
    5.9421   -0.1872    0.5456 O   0  0  0  0  0  0
    1.2301   -4.3126   -0.4134 C   0  0  0  0  0  0
    2.1622   -2.5287    1.4637 H   0  0  0  0  0  0
    3.8241   -3.9641    0.5791 H   0  0  0  0  0  0
    3.8591   -3.1518   -0.9715 H   0  0  0  0  0  0
    5.7029   -2.6447    0.9305 H   0  0  0  0  0  0
    3.7176    0.8381   -0.1574 H   0  0  0  0  0  0
    3.6667   -0.4262   -1.3746 H   0  0  0  0  0  0
    1.2160   -0.1909   -1.2592 H   0  0  0  0  0  0
    1.2235    0.9025    0.1087 H   0  0  0  0  0  0
   -0.0648   -0.7183    1.4582 H   0  0  0  0  0  0
   -0.9177   -0.3921   -0.0219 H   0  0  0  0  0  0
   -0.3446   -2.9102    0.9439 H   0  0  0  0  0  0
   -0.7577   -2.5718   -0.7191 H   0  0  0  0  0  0
    0.3687   -4.6592   -0.9871 H   0  0  0  0  0  0
    1.1428   -4.7204    0.5956 H   0  0  0  0  0  0
    2.1086   -4.7566   -0.8825 H   0  0  0  0  0  0
    2.4637   -0.8025    0.3353 N   0  3  1  0  0  0
    2.5583   -0.5211    1.3001 H   0  0  0  0  0  0
    1.2921   -2.8489   -0.4037 N   0  0  0  0  0  0
  1  2  1  0  0  0
  1 11  1  0  0  0
  1 26  1  0  0  0
  1 28  1  0  0  0
  2  3  1  0  0  0
  2 12  1  0  0  0
  2 13  1  0  0  0
  3  4  1  0  0  0
  3 14  1  0  0  0
  4  5  1  0  0  0
  4  9  2  0  0  0
  5 15  1  0  0  0
  5 16  1  0  0  0
  5 26  1  0  0  0
  6  7  1  0  0  0
  6 17  1  0  0  0
  6 18  1  0  0  0
  6 26  1  0  0  0
  7  8  1  0  0  0
  7 19  1  0  0  0
  7 20  1  0  0  0
  8 21  1  0  0  0
  8 22  1  0  0  0
  8 28  1  0  0  0
 10 23  1  0  0  0
 10 24  1  0  0  0
 10 25  1  0  0  0
 10 28  1  0  0  0
 26 27  1  0  0  0
M  CHG  1  26   1
M  END
> <s_m_entry_name>
Schrodinger_fragment_487

> <i_m_number_of_atoms>
29

> <r_m_molecular_weight>
171.24419

> <s_m_molecular_formula>
C8H17N3O1

> <r_epik_Ionization_Penalty>
  0.0185

> <r_epik_Ionization_Penalty_Charging>
  0.0161

> <r_epik_Ionization_Penalty_Neutral>
  0.0024

> <r_epik_State_Penalty>
  0.9254

> <i_epik_Tot_Q>
1

> <r_epik_Metal_State_Penalty>
  1.8764

> <b_epik_Metal_Only>
0

> <s_m_entry_id>
4951

> <s_canvas_Unique_SMILES_Stereo>
CN1CCC[N@@H+]([C@@H]12)CC(=O)NC2

$$$$
Schrodinger_fragment_393_b
                    3D
 Structure written by MMmdl.
 27 28  0  0  1  0            999 V2000
    2.4199   -2.3110    0.3841 C   0  0  1  0  0  0
    3.7986   -2.9103   -0.0680 C   0  0  0  0  0  0
    4.9621   -2.1685    0.4325 N   0  0  0  0  0  0
    4.9279   -0.9045    0.3514 C   0  0  0  0  0  0
    3.6678   -0.2336   -0.2227 C   0  0  0  0  0  0
    1.2502   -0.1780   -0.2588 C   0  0  0  0  0  0
    0.0212   -0.8313    0.3697 C   0  0  0  0  0  0
   -0.0595   -2.3220    0.0036 C   0  0  0  0  0  0
    5.8462   -0.1727    0.7247 O   0  5  0  0  0  0
    1.2063   -4.3959   -0.2831 C   0  0  0  0  0  0
    2.2783   -2.5532    1.4396 H   0  0  0  0  0  0
    3.8735   -3.9423    0.2784 H   0  0  0  0  0  0
    3.8450   -2.9622   -1.1586 H   0  0  0  0  0  0
    3.6805    0.8361   -0.0013 H   0  0  0  0  0  0
    3.6860   -0.3236   -1.3112 H   0  0  0  0  0  0
    1.2294   -0.2787   -1.3458 H   0  0  0  0  0  0
    1.2662    0.8903   -0.0358 H   0  0  0  0  0  0
    0.0639   -0.7173    1.4542 H   0  0  0  0  0  0
   -0.8887   -0.3211    0.0511 H   0  0  0  0  0  0
   -0.5095   -2.8623    0.8379 H   0  0  0  0  0  0
   -0.7278   -2.4590   -0.8474 H   0  0  0  0  0  0
    0.3163   -4.7714   -0.7892 H   0  0  0  0  0  0
    1.1759   -4.7443    0.7498 H   0  0  0  0  0  0
    2.0609   -4.8574   -0.7763 H   0  0  0  0  0  0
    2.4322   -0.8243    0.3079 N   0  0  0  0  0  0
    1.2614   -2.9146   -0.3476 N   0  3  2  0  0  0
    1.4113   -2.6972   -1.3210 H   0  0  0  0  0  0
  1  2  1  0  0  0
  1 11  1  0  0  0
  1 25  1  0  0  0
  1 26  1  0  0  0
  2  3  1  0  0  0
  2 12  1  0  0  0
  2 13  1  0  0  0
  3  4  2  0  0  0
  4  5  1  0  0  0
  4  9  1  0  0  0
  5 14  1  0  0  0
  5 15  1  0  0  0
  5 25  1  0  0  0
  6  7  1  0  0  0
  6 16  1  0  0  0
  6 17  1  0  0  0
  6 25  1  0  0  0
  7  8  1  0  0  0
  7 18  1  0  0  0
  7 19  1  0  0  0
  8 20  1  0  0  0
  8 21  1  0  0  0
  8 26  1  0  0  0
 10 22  1  0  0  0
 10 23  1  0  0  0
 10 24  1  0  0  0
 10 26  1  0  0  0
 26 27  1  0  0  0
M  CHG  2   9  -1  26   1
M  END
> <s_m_entry_name>
Schrodinger_fragment_487

> <i_m_number_of_atoms>
29

> <r_m_molecular_weight>
171.24419

> <s_m_molecular_formula>
C8H17N3O1

> <r_epik_Ionization_Penalty>
  5.4541

> <r_epik_Ionization_Penalty_Charging>
  5.4508

> <r_epik_Ionization_Penalty_Neutral>
  0.0033

> <r_epik_State_Penalty>
  5.5898

> <i_epik_Tot_Q>
0

> <r_epik_Metal_State_Penalty>
  1.5546

> <b_epik_Metal_Only>
1

> <s_m_entry_id>
4952

> <s_canvas_Unique_SMILES_Stereo>
C[N@H+]1CCCN([C@@H]12)CC([O-])=NC2

$$$$
Schrodinger_fragment_393_c
                    3D
 Structure written by MMmdl.
 27 28  0  0  1  0            999 V2000
    2.3917   -2.3006    0.4284 C   0  0  1  0  0  0
    3.7735   -2.9452    0.0766 C   0  0  0  0  0  0
    4.9154   -2.1598    0.5566 N   0  0  0  0  0  0
    4.9097   -0.9111    0.3324 C   0  0  0  0  0  0
    3.6802   -0.2952   -0.3449 C   0  0  0  0  0  0
    1.2243   -0.1444   -0.1647 C   0  0  0  0  0  0
   -0.0136   -0.8525    0.3926 C   0  0  0  0  0  0
   -0.0152   -2.3571    0.0638 C   0  0  0  0  0  0
    5.8291   -0.1569    0.6592 O   0  5  0  0  0  0
    1.2368   -4.3018   -0.4144 C   0  0  0  0  0  0
    2.1664   -2.5290    1.4728 H   0  0  0  0  0  0
    3.8247   -3.9487    0.5030 H   0  0  0  0  0  0
    3.8598   -3.0795   -1.0048 H   0  0  0  0  0  0
    3.7105    0.7939   -0.2731 H   0  0  0  0  0  0
    3.6719   -0.5449   -1.4076 H   0  0  0  0  0  0
    1.1980   -0.1767   -1.2551 H   0  0  0  0  0  0
    1.2274    0.9080    0.1206 H   0  0  0  0  0  0
   -0.0461   -0.7191    1.4749 H   0  0  0  0  0  0
   -0.9212   -0.3855    0.0083 H   0  0  0  0  0  0
   -0.3387   -2.9076    0.9500 H   0  0  0  0  0  0
   -0.7562   -2.5620   -0.7112 H   0  0  0  0  0  0
    0.3758   -4.6503   -0.9874 H   0  0  0  0  0  0
    1.1541   -4.7112    0.5942 H   0  0  0  0  0  0
    2.1174   -4.7391   -0.8856 H   0  0  0  0  0  0
    2.4592   -0.8052    0.3210 N   0  3  1  0  0  0
    2.6075   -0.5143    1.2749 H   0  0  0  0  0  0
    1.2942   -2.8388   -0.4007 N   0  0  0  0  0  0
  1  2  1  0  0  0
  1 11  1  0  0  0
  1 25  1  0  0  0
  1 27  1  0  0  0
  2  3  1  0  0  0
  2 12  1  0  0  0
  2 13  1  0  0  0
  3  4  2  0  0  0
  4  5  1  0  0  0
  4  9  1  0  0  0
  5 14  1  0  0  0
  5 15  1  0  0  0
  5 25  1  0  0  0
  6  7  1  0  0  0
  6 16  1  0  0  0
  6 17  1  0  0  0
  6 25  1  0  0  0
  7  8  1  0  0  0
  7 18  1  0  0  0
  7 19  1  0  0  0
  8 20  1  0  0  0
  8 21  1  0  0  0
  8 27  1  0  0  0
 10 22  1  0  0  0
 10 23  1  0  0  0
 10 24  1  0  0  0
 10 27  1  0  0  0
 25 26  1  0  0  0
M  CHG  2   9  -1  25   1
M  END
> <s_m_entry_name>
Schrodinger_fragment_487

> <i_m_number_of_atoms>
29

> <r_m_molecular_weight>
171.24419

> <s_m_molecular_formula>
C8H17N3O1

> <r_epik_Ionization_Penalty>
  3.2778

> <r_epik_Ionization_Penalty_Charging>
  3.2778

> <r_epik_Ionization_Penalty_Neutral>
  0.0000

> <r_epik_State_Penalty>
  4.1976

> <i_epik_Tot_Q>
0

> <r_epik_Metal_State_Penalty>
  1.0559

> <b_epik_Metal_Only>
1

> <s_m_entry_id>
4953

> <s_canvas_Unique_SMILES_Stereo>
CN1CCC[N@@H+]([C@@H]12)CC([O-])=NC2

$$$$
Schrodinger_fragment_394
                    3D
 Structure written by MMmdl.
 28 29  0  0  1  0            999 V2000
    2.4941   -2.2289   -0.4213 C   0  0  2  0  0  0
    3.6216   -2.9936    0.3285 C   0  0  0  0  0  0
    4.8760   -2.2396    0.3819 N   0  0  0  0  0  0
    4.9609   -0.9088    0.2656 C   0  0  0  0  0  0
    3.6672   -0.1175   -0.0058 C   0  0  0  0  0  0
    1.2373   -0.1318   -0.2227 C   0  0  0  0  0  0
   -0.0359   -0.8630    0.2515 C   0  0  0  0  0  0
    0.1848   -2.3647    0.5213 C   0  0  0  0  0  0
    6.0388   -0.3245    0.3532 O   0  0  0  0  0  0
    1.2025   -4.4057   -0.4313 C   0  0  0  0  0  0
    2.7865   -2.1224   -1.4688 H   0  0  0  0  0  0
    3.3136   -3.2166    1.3511 H   0  0  0  0  0  0
    3.8360   -3.9472   -0.1544 H   0  0  0  0  0  0
    5.7267   -2.7597    0.5481 H   0  0  0  0  0  0
    3.6588    0.7674    0.6325 H   0  0  0  0  0  0
    3.7171    0.2401   -1.0360 H   0  0  0  0  0  0
    1.2345   -0.0231   -1.3096 H   0  0  0  0  0  0
    1.2532    0.8782    0.1913 H   0  0  0  0  0  0
   -0.4145   -0.3974    1.1623 H   0  0  0  0  0  0
   -0.8194   -0.7275   -0.4953 H   0  0  0  0  0  0
    0.5633   -2.5125    1.5342 H   0  0  0  0  0  0
   -0.7673   -2.8937    0.4638 H   0  0  0  0  0  0
    0.2111   -4.8160   -0.6248 H   0  0  0  0  0  0
    1.5365   -4.7955    0.5306 H   0  0  0  0  0  0
    1.8636   -4.7858   -1.2106 H   0  0  0  0  0  0
    2.4152   -0.8881    0.1981 N   0  0  0  0  0  0
    1.1631   -2.9237   -0.4408 N   0  3  2  0  0  0
    0.7786   -2.7008   -1.3468 H   0  0  0  0  0  0
  1  2  1  0  0  0
  1 11  1  0  0  0
  1 26  1  0  0  0
  1 27  1  0  0  0
  2  3  1  0  0  0
  2 12  1  0  0  0
  2 13  1  0  0  0
  3  4  1  0  0  0
  3 14  1  0  0  0
  4  5  1  0  0  0
  4  9  2  0  0  0
  5 15  1  0  0  0
  5 16  1  0  0  0
  5 26  1  0  0  0
  6  7  1  0  0  0
  6 17  1  0  0  0
  6 18  1  0  0  0
  6 26  1  0  0  0
  7  8  1  0  0  0
  7 19  1  0  0  0
  7 20  1  0  0  0
  8 21  1  0  0  0
  8 22  1  0  0  0
  8 27  1  0  0  0
 10 23  1  0  0  0
 10 24  1  0  0  0
 10 25  1  0  0  0
 10 27  1  0  0  0
 27 28  1  0  0  0
M  CHG  1  27   1
M  END
> <s_m_entry_name>
Schrodinger_fragment_488

> <i_m_number_of_atoms>
29

> <r_m_molecular_weight>
171.24419

> <s_m_molecular_formula>
C8H17N3O1

> <r_epik_Ionization_Penalty>
  0.0059

> <r_epik_Ionization_Penalty_Charging>
  0.0043

> <r_epik_Ionization_Penalty_Neutral>
  0.0016

> <r_epik_State_Penalty>
  0.1395

> <i_epik_Tot_Q>
1

> <r_epik_Metal_State_Penalty>
  0.1970

> <b_epik_Metal_Only>
0

> <s_m_entry_id>
4954

> <s_canvas_Unique_SMILES_Stereo>
C[N@H+]1CCCN([C@H]12)CC(=O)NC2

$$$$
Schrodinger_fragment_394_a
                    3D
 Structure written by MMmdl.
 28 29  0  0  1  0            999 V2000
    2.5040   -2.2459   -0.3996 C   0  0  2  0  0  0
    3.5821   -2.9962    0.4214 C   0  0  0  0  0  0
    4.8052   -2.1985    0.5814 N   0  0  0  0  0  0
    4.9349   -0.8901    0.3027 C   0  0  0  0  0  0
    3.7002   -0.1114   -0.1809 C   0  0  0  0  0  0
    1.1987   -0.1465   -0.2267 C   0  0  0  0  0  0
   -0.0000   -0.8941    0.3970 C   0  0  0  0  0  0
    0.2385   -2.4116    0.5724 C   0  0  0  0  0  0
    6.0135   -0.3149    0.4387 O   0  0  0  0  0  0
    1.1824   -4.3351   -0.5637 C   0  0  0  0  0  0
    2.8477   -2.2069   -1.4356 H   0  0  0  0  0  0
    3.2058   -3.2457    1.4147 H   0  0  0  0  0  0
    3.8475   -3.9381   -0.0601 H   0  0  0  0  0  0
    5.6297   -2.6893    0.9027 H   0  0  0  0  0  0
    3.6785    0.8615    0.3111 H   0  0  0  0  0  0
    3.7890    0.0690   -1.2527 H   0  0  0  0  0  0
    1.0987   -0.1095   -1.3125 H   0  0  0  0  0  0
    1.2229    0.8855    0.1244 H   0  0  0  0  0  0
   -0.2439   -0.4642    1.3695 H   0  0  0  0  0  0
   -0.8789   -0.7259   -0.2267 H   0  0  0  0  0  0
    0.6456   -2.6289    1.5622 H   0  0  0  0  0  0
   -0.7152   -2.9389    0.5067 H   0  0  0  0  0  0
    0.1819   -4.7160   -0.7744 H   0  0  0  0  0  0
    1.5262   -4.8077    0.3579 H   0  0  0  0  0  0
    1.8300   -4.6615   -1.3791 H   0  0  0  0  0  0
    2.4521   -0.8502    0.1109 N   0  3  1  0  0  0
    2.4583   -0.9361    1.1152 H   0  0  0  0  0  0
    1.1654   -2.8776   -0.4583 N   0  0  0  0  0  0
  1  2  1  0  0  0
  1 11  1  0  0  0
  1 26  1  0  0  0
  1 28  1  0  0  0
  2  3  1  0  0  0
  2 12  1  0  0  0
  2 13  1  0  0  0
  3  4  1  0  0  0
  3 14  1  0  0  0
  4  5  1  0  0  0
  4  9  2  0  0  0
  5 15  1  0  0  0
  5 16  1  0  0  0
  5 26  1  0  0  0
  6  7  1  0  0  0
  6 17  1  0  0  0
  6 18  1  0  0  0
  6 26  1  0  0  0
  7  8  1  0  0  0
  7 19  1  0  0  0
  7 20  1  0  0  0
  8 21  1  0  0  0
  8 22  1  0  0  0
  8 28  1  0  0  0
 10 23  1  0  0  0
 10 24  1  0  0  0
 10 25  1  0  0  0
 10 28  1  0  0  0
 26 27  1  0  0  0
M  CHG  1  26   1
M  END
> <s_m_entry_name>
Schrodinger_fragment_488

> <i_m_number_of_atoms>
29

> <r_m_molecular_weight>
171.24419

> <s_m_molecular_formula>
C8H17N3O1

> <r_epik_Ionization_Penalty>
  0.0185

> <r_epik_Ionization_Penalty_Charging>
  0.0161

> <r_epik_Ionization_Penalty_Neutral>
  0.0024

> <r_epik_State_Penalty>
  0.9254

> <i_epik_Tot_Q>
1

> <r_epik_Metal_State_Penalty>
  1.8764

> <b_epik_Metal_Only>
0

> <s_m_entry_id>
4955

> <s_canvas_Unique_SMILES_Stereo>
CN1CCC[N@@H+]([C@H]12)CC(=O)NC2

$$$$
Schrodinger_fragment_394_b
                    3D
 Structure written by MMmdl.
 27 28  0  0  1  0            999 V2000
    2.4861   -2.2132   -0.4414 C   0  0  2  0  0  0
    3.6405   -2.9725    0.2874 C   0  0  0  0  0  0
    4.9134   -2.2346    0.3655 N   0  0  0  0  0  0
    4.9411   -0.9684    0.2566 C   0  0  0  0  0  0
    3.6555   -0.1610   -0.0338 C   0  0  0  0  0  0
    1.2439   -0.1256   -0.1976 C   0  0  0  0  0  0
   -0.0352   -0.8571    0.2586 C   0  0  0  0  0  0
    0.1831   -2.3606    0.5224 C   0  0  0  0  0  0
    5.9843   -0.3207    0.3556 O   0  5  0  0  0  0
    1.2084   -4.3995   -0.4267 C   0  0  0  0  0  0
    2.7562   -2.0807   -1.4920 H   0  0  0  0  0  0
    3.3219   -3.2377    1.2978 H   0  0  0  0  0  0
    3.8303   -3.9177   -0.2229 H   0  0  0  0  0  0
    3.6546    0.7480    0.5719 H   0  0  0  0  0  0
    3.6837    0.1648   -1.0763 H   0  0  0  0  0  0
    1.2475   -0.0039   -1.2828 H   0  0  0  0  0  0
    1.2686    0.8776    0.2317 H   0  0  0  0  0  0
   -0.4239   -0.3950    1.1669 H   0  0  0  0  0  0
   -0.8091   -0.7175   -0.4974 H   0  0  0  0  0  0
    0.5636   -2.5128    1.5339 H   0  0  0  0  0  0
   -0.7695   -2.8885    0.4641 H   0  0  0  0  0  0
    0.2172   -4.8170   -0.6050 H   0  0  0  0  0  0
    1.5582   -4.7816    0.5325 H   0  0  0  0  0  0
    1.8617   -4.7782   -1.2130 H   0  0  0  0  0  0
    2.4129   -0.8965    0.2161 N   0  0  0  0  0  0
    1.1597   -2.9182   -0.4428 N   0  3  2  0  0  0
    0.7676   -2.7035   -1.3474 H   0  0  0  0  0  0
  1  2  1  0  0  0
  1 11  1  0  0  0
  1 25  1  0  0  0
  1 26  1  0  0  0
  2  3  1  0  0  0
  2 12  1  0  0  0
  2 13  1  0  0  0
  3  4  2  0  0  0
  4  5  1  0  0  0
  4  9  1  0  0  0
  5 14  1  0  0  0
  5 15  1  0  0  0
  5 25  1  0  0  0
  6  7  1  0  0  0
  6 16  1  0  0  0
  6 17  1  0  0  0
  6 25  1  0  0  0
  7  8  1  0  0  0
  7 18  1  0  0  0
  7 19  1  0  0  0
  8 20  1  0  0  0
  8 21  1  0  0  0
  8 26  1  0  0  0
 10 22  1  0  0  0
 10 23  1  0  0  0
 10 24  1  0  0  0
 10 26  1  0  0  0
 26 27  1  0  0  0
M  CHG  2   9  -1  26   1
M  END
> <s_m_entry_name>
Schrodinger_fragment_488

> <i_m_number_of_atoms>
29

> <r_m_molecular_weight>
171.24419

> <s_m_molecular_formula>
C8H17N3O1

> <r_epik_Ionization_Penalty>
  5.4541

> <r_epik_Ionization_Penalty_Charging>
  5.4508

> <r_epik_Ionization_Penalty_Neutral>
  0.0033

> <r_epik_State_Penalty>
  5.5898

> <i_epik_Tot_Q>
0

> <r_epik_Metal_State_Penalty>
  1.5546

> <b_epik_Metal_Only>
1

> <s_m_entry_id>
4956

> <s_canvas_Unique_SMILES_Stereo>
C[N@H+]1CCCN([C@H]12)CC([O-])=NC2

$$$$
Schrodinger_fragment_394_c
                    3D
 Structure written by MMmdl.
 27 28  0  0  1  0            999 V2000
    2.5004   -2.2384   -0.4211 C   0  0  2  0  0  0
    3.5678   -2.9568    0.4457 C   0  0  0  0  0  0
    4.8067   -2.1777    0.6363 N   0  0  0  0  0  0
    4.8941   -0.9325    0.3664 C   0  0  0  0  0  0
    3.6963   -0.1438   -0.2010 C   0  0  0  0  0  0
    1.1920   -0.1403   -0.2225 C   0  0  0  0  0  0
   -0.0025   -0.8927    0.4014 C   0  0  0  0  0  0
    0.2468   -2.4083    0.5758 C   0  0  0  0  0  0
    5.9367   -0.2978    0.5420 O   0  5  0  0  0  0
    1.1860   -4.3261   -0.5720 C   0  0  0  0  0  0
    2.8518   -2.2114   -1.4554 H   0  0  0  0  0  0
    3.1484   -3.2009    1.4239 H   0  0  0  0  0  0
    3.8212   -3.9134   -0.0145 H   0  0  0  0  0  0
    3.6633    0.8514    0.2466 H   0  0  0  0  0  0
    3.8130   -0.0096   -1.2778 H   0  0  0  0  0  0
    1.0837   -0.0895   -1.3069 H   0  0  0  0  0  0
    1.2237    0.8867    0.1426 H   0  0  0  0  0  0
   -0.2460   -0.4648    1.3747 H   0  0  0  0  0  0
   -0.8832   -0.7289   -0.2209 H   0  0  0  0  0  0
    0.6718   -2.6196    1.5591 H   0  0  0  0  0  0
   -0.7041   -2.9420    0.5251 H   0  0  0  0  0  0
    0.1863   -4.7122   -0.7763 H   0  0  0  0  0  0
    1.5388   -4.7953    0.3478 H   0  0  0  0  0  0
    1.8316   -4.6481   -1.3906 H   0  0  0  0  0  0
    2.4426   -0.8553    0.0962 N   0  3  1  0  0  0
    2.4891   -0.9578    1.0972 H   0  0  0  0  0  0
    1.1630   -2.8693   -0.4670 N   0  0  0  0  0  0
  1  2  1  0  0  0
  1 11  1  0  0  0
  1 25  1  0  0  0
  1 27  1  0  0  0
  2  3  1  0  0  0
  2 12  1  0  0  0
  2 13  1  0  0  0
  3  4  2  0  0  0
  4  5  1  0  0  0
  4  9  1  0  0  0
  5 14  1  0  0  0
  5 15  1  0  0  0
  5 25  1  0  0  0
  6  7  1  0  0  0
  6 16  1  0  0  0
  6 17  1  0  0  0
  6 25  1  0  0  0
  7  8  1  0  0  0
  7 18  1  0  0  0
  7 19  1  0  0  0
  8 20  1  0  0  0
  8 21  1  0  0  0
  8 27  1  0  0  0
 10 22  1  0  0  0
 10 23  1  0  0  0
 10 24  1  0  0  0
 10 27  1  0  0  0
 25 26  1  0  0  0
M  CHG  2   9  -1  25   1
M  END
> <s_m_entry_name>
Schrodinger_fragment_488

> <i_m_number_of_atoms>
29

> <r_m_molecular_weight>
171.24419

> <s_m_molecular_formula>
C8H17N3O1

> <r_epik_Ionization_Penalty>
  3.2778

> <r_epik_Ionization_Penalty_Charging>
  3.2778

> <r_epik_Ionization_Penalty_Neutral>
  0.0000

> <r_epik_State_Penalty>
  4.1976

> <i_epik_Tot_Q>
0

> <r_epik_Metal_State_Penalty>
  1.0559

> <b_epik_Metal_Only>
1

> <s_m_entry_id>
4957

> <s_canvas_Unique_SMILES_Stereo>
CN1CCC[N@@H+]([C@H]12)CC([O-])=NC2

$$$$
Schrodinger_fragment_395
                    3D
 Structure written by MMmdl.
 28 29  0  0  1  0            999 V2000
    2.4420   -2.2854    0.2649 C   0  0  1  0  0  0
    3.7346   -2.9857   -0.2376 C   0  0  0  0  0  0
    4.9421   -2.1716   -0.1102 N   0  0  0  0  0  0
    4.9762   -0.8646    0.1688 C   0  0  0  0  0  0
    3.6523   -0.1248    0.3808 C   0  0  0  0  0  0
    1.2143   -0.1241    0.1273 C   0  0  0  0  0  0
    0.0111   -0.8893   -0.4255 C   0  0  0  0  0  0
    0.0053   -2.3112    0.1358 C   0  0  0  0  0  0
    6.0439   -0.2600    0.2559 O   0  0  0  0  0  0
    1.1596   -4.3629    0.2198 C   0  0  0  0  0  0
    2.4190   -2.3117    1.3571 H   0  0  0  0  0  0
    3.9017   -3.9163    0.3053 H   0  0  0  0  0  0
    3.6329   -3.2533   -1.2907 H   0  0  0  0  0  0
    5.8268   -2.6441   -0.2429 H   0  0  0  0  0  0
    3.5302    0.0411    1.4518 H   0  0  0  0  0  0
    3.7183    0.8574   -0.0885 H   0  0  0  0  0  0
    1.2553    0.8730   -0.3125 H   0  0  0  0  0  0
    1.1012    0.0097    1.2042 H   0  0  0  0  0  0
   -0.9114   -0.3767   -0.1504 H   0  0  0  0  0  0
    0.0379   -0.9115   -1.5160 H   0  0  0  0  0  0
   -0.1007   -2.2953    1.2232 H   0  0  0  0  0  0
   -0.8588   -2.8492   -0.2594 H   0  0  0  0  0  0
    0.2471   -4.8426   -0.1386 H   0  0  0  0  0  0
    1.1528   -4.4125    1.3105 H   0  0  0  0  0  0
    1.9858   -4.9754   -0.1417 H   0  0  0  0  0  0
    2.4738   -0.8530   -0.1532 N   0  3  2  0  0  0
    2.5955   -0.8695   -1.1540 H   0  0  0  0  0  0
    1.2458   -2.9818   -0.2615 N   0  0  0  0  0  0
  1  2  1  0  0  0
  1 11  1  0  0  0
  1 26  1  0  0  0
  1 28  1  0  0  0
  2  3  1  0  0  0
  2 12  1  0  0  0
  2 13  1  0  0  0
  3  4  1  0  0  0
  3 14  1  0  0  0
  4  5  1  0  0  0
  4  9  2  0  0  0
  5 15  1  0  0  0
  5 16  1  0  0  0
  5 26  1  0  0  0
  6  7  1  0  0  0
  6 17  1  0  0  0
  6 18  1  0  0  0
  6 26  1  0  0  0
  7  8  1  0  0  0
  7 19  1  0  0  0
  7 20  1  0  0  0
  8 21  1  0  0  0
  8 22  1  0  0  0
  8 28  1  0  0  0
 10 23  1  0  0  0
 10 24  1  0  0  0
 10 25  1  0  0  0
 10 28  1  0  0  0
 26 27  1  0  0  0
M  CHG  1  26   1
M  END
> <s_m_entry_name>
Schrodinger_fragment_489

> <i_m_number_of_atoms>
29

> <r_m_molecular_weight>
171.24419

> <s_m_molecular_formula>
C8H17N3O1

> <r_epik_Ionization_Penalty>
  0.0185

> <r_epik_Ionization_Penalty_Charging>
  0.0161

> <r_epik_Ionization_Penalty_Neutral>
  0.0024

> <r_epik_State_Penalty>
  0.9254

> <i_epik_Tot_Q>
1

> <r_epik_Metal_State_Penalty>
  1.8764

> <b_epik_Metal_Only>
0

> <s_m_entry_id>
4958

> <s_canvas_Unique_SMILES_Stereo>
CN1CCC[N@H+]([C@@H]12)CC(=O)NC2

$$$$
Schrodinger_fragment_395_a
                    3D
 Structure written by MMmdl.
 27 28  0  0  1  0            999 V2000
    2.4374   -2.2791    0.2826 C   0  0  1  0  0  0
    3.7362   -2.9531   -0.2520 C   0  0  0  0  0  0
    4.9609   -2.1441   -0.1750 N   0  0  0  0  0  0
    4.9505   -0.9029    0.0951 C   0  0  0  0  0  0
    3.6439   -0.1655    0.4151 C   0  0  0  0  0  0
    1.2100   -0.1185    0.1197 C   0  0  0  0  0  0
    0.0111   -0.8848   -0.4381 C   0  0  0  0  0  0
    0.0039   -2.3039    0.1303 C   0  0  0  0  0  0
    5.9851   -0.2322    0.1264 O   0  5  0  0  0  0
    1.1619   -4.3527    0.2288 C   0  0  0  0  0  0
    2.4159   -2.3132    1.3749 H   0  0  0  0  0  0
    3.9030   -3.8846    0.2913 H   0  0  0  0  0  0
    3.5872   -3.2459   -1.2938 H   0  0  0  0  0  0
    3.5432   -0.0703    1.4979 H   0  0  0  0  0  0
    3.6858    0.8481    0.0112 H   0  0  0  0  0  0
    1.2607    0.8742   -0.3288 H   0  0  0  0  0  0
    1.0877    0.0242    1.1945 H   0  0  0  0  0  0
   -0.9137   -0.3711   -0.1728 H   0  0  0  0  0  0
    0.0479   -0.9124   -1.5282 H   0  0  0  0  0  0
   -0.1062   -2.2820    1.2169 H   0  0  0  0  0  0
   -0.8568   -2.8456   -0.2669 H   0  0  0  0  0  0
    0.2565   -4.8381   -0.1394 H   0  0  0  0  0  0
    1.1422   -4.3969    1.3194 H   0  0  0  0  0  0
    1.9969   -4.9609   -0.1190 H   0  0  0  0  0  0
    2.4655   -0.8586   -0.1429 N   0  3  2  0  0  0
    2.6319   -0.8823   -1.1360 H   0  0  0  0  0  0
    1.2481   -2.9736   -0.2562 N   0  0  0  0  0  0
  1  2  1  0  0  0
  1 11  1  0  0  0
  1 25  1  0  0  0
  1 27  1  0  0  0
  2  3  1  0  0  0
  2 12  1  0  0  0
  2 13  1  0  0  0
  3  4  2  0  0  0
  4  5  1  0  0  0
  4  9  1  0  0  0
  5 14  1  0  0  0
  5 15  1  0  0  0
  5 25  1  0  0  0
  6  7  1  0  0  0
  6 16  1  0  0  0
  6 17  1  0  0  0
  6 25  1  0  0  0
  7  8  1  0  0  0
  7 18  1  0  0  0
  7 19  1  0  0  0
  8 20  1  0  0  0
  8 21  1  0  0  0
  8 27  1  0  0  0
 10 22  1  0  0  0
 10 23  1  0  0  0
 10 24  1  0  0  0
 10 27  1  0  0  0
 25 26  1  0  0  0
M  CHG  2   9  -1  25   1
M  END
> <s_m_entry_name>
Schrodinger_fragment_489

> <i_m_number_of_atoms>
29

> <r_m_molecular_weight>
171.24419

> <s_m_molecular_formula>
C8H17N3O1

> <r_epik_Ionization_Penalty>
  3.2778

> <r_epik_Ionization_Penalty_Charging>
  3.2778

> <r_epik_Ionization_Penalty_Neutral>
  0.0000

> <r_epik_State_Penalty>
  4.1976

> <i_epik_Tot_Q>
0

> <r_epik_Metal_State_Penalty>
  1.0559

> <b_epik_Metal_Only>
1

> <s_m_entry_id>
4959

> <s_canvas_Unique_SMILES_Stereo>
CN1CCC[N@H+]([C@@H]12)CC([O-])=NC2

$$$$
Schrodinger_fragment_396
                    3D
 Structure written by MMmdl.
 28 29  0  0  1  0            999 V2000
    2.4891   -2.3249   -0.5151 C   0  0  2  0  0  0
    3.3687   -2.7982    0.6767 C   0  0  0  0  0  0
    4.5685   -1.9830    0.8623 N   0  0  0  0  0  0
    4.8006   -0.7902    0.3002 C   0  0  0  0  0  0
    3.7468   -0.1934   -0.6442 C   0  0  0  0  0  0
    1.5372   -0.2694    0.4931 C   0  0  0  0  0  0
    0.1501   -0.9269    0.4511 C   0  0  0  0  0  0
    0.2589   -2.4560    0.5219 C   0  0  0  0  0  0
    5.8410   -0.1749    0.5280 O   0  0  0  0  0  0
    1.1575   -4.3750   -0.6184 C   0  0  0  0  0  0
    2.9954   -2.6310   -1.4332 H   0  0  0  0  0  0
    2.8184   -2.7712    1.6165 H   0  0  0  0  0  0
    3.6759   -3.8343    0.5317 H   0  0  0  0  0  0
    5.2823   -2.3560    1.4744 H   0  0  0  0  0  0
    3.6651    0.8812   -0.4785 H   0  0  0  0  0  0
    4.1205   -0.3166   -1.6609 H   0  0  0  0  0  0
    1.4355    0.8067    0.3498 H   0  0  0  0  0  0
    1.9895   -0.4124    1.4751 H   0  0  0  0  0  0
   -0.4589   -0.5597    1.2780 H   0  0  0  0  0  0
   -0.3721   -0.6366   -0.4618 H   0  0  0  0  0  0
    0.6231   -2.7752    1.4997 H   0  0  0  0  0  0
   -0.7343   -2.8939    0.4053 H   0  0  0  0  0  0
    0.1539   -4.7657   -0.7938 H   0  0  0  0  0  0
    1.5247   -4.8197    0.3080 H   0  0  0  0  0  0
    1.7880   -4.7257   -1.4370 H   0  0  0  0  0  0
    2.4113   -0.8399   -0.5632 N   0  3  2  0  0  0
    1.9585   -0.6177   -1.4356 H   0  0  0  0  0  0
    1.1363   -2.9147   -0.5588 N   0  0  0  0  0  0
  1  2  1  0  0  0
  1 11  1  0  0  0
  1 26  1  0  0  0
  1 28  1  0  0  0
  2  3  1  0  0  0
  2 12  1  0  0  0
  2 13  1  0  0  0
  3  4  1  0  0  0
  3 14  1  0  0  0
  4  5  1  0  0  0
  4  9  2  0  0  0
  5 15  1  0  0  0
  5 16  1  0  0  0
  5 26  1  0  0  0
  6  7  1  0  0  0
  6 17  1  0  0  0
  6 18  1  0  0  0
  6 26  1  0  0  0
  7  8  1  0  0  0
  7 19  1  0  0  0
  7 20  1  0  0  0
  8 21  1  0  0  0
  8 22  1  0  0  0
  8 28  1  0  0  0
 10 23  1  0  0  0
 10 24  1  0  0  0
 10 25  1  0  0  0
 10 28  1  0  0  0
 26 27  1  0  0  0
M  CHG  1  26   1
M  END
> <s_m_entry_name>
Schrodinger_fragment_490

> <i_m_number_of_atoms>
29

> <r_m_molecular_weight>
171.24419

> <s_m_molecular_formula>
C8H17N3O1

> <r_epik_Ionization_Penalty>
  0.0185

> <r_epik_Ionization_Penalty_Charging>
  0.0161

> <r_epik_Ionization_Penalty_Neutral>
  0.0024

> <r_epik_State_Penalty>
  0.9254

> <i_epik_Tot_Q>
1

> <r_epik_Metal_State_Penalty>
  1.8764

> <b_epik_Metal_Only>
0

> <s_m_entry_id>
4960

> <s_canvas_Unique_SMILES_Stereo>
CN1CCC[N@H+]([C@H]12)CC(=O)NC2

$$$$
Schrodinger_fragment_396_a
                    3D
 Structure written by MMmdl.
 27 28  0  0  1  0            999 V2000
    2.4876   -2.3174   -0.5270 C   0  0  2  0  0  0
    3.3667   -2.7588    0.6826 C   0  0  0  0  0  0
    4.5936   -1.9743    0.8734 N   0  0  0  0  0  0
    4.7674   -0.8344    0.3359 C   0  0  0  0  0  0
    3.7406   -0.2246   -0.6397 C   0  0  0  0  0  0
    1.5319   -0.2705    0.4948 C   0  0  0  0  0  0
    0.1445   -0.9250    0.4524 C   0  0  0  0  0  0
    0.2571   -2.4537    0.5174 C   0  0  0  0  0  0
    5.7817   -0.1653    0.5483 O   0  5  0  0  0  0
    1.1643   -4.3680   -0.6214 C   0  0  0  0  0  0
    2.9951   -2.6272   -1.4437 H   0  0  0  0  0  0
    2.7959   -2.7249    1.6106 H   0  0  0  0  0  0
    3.6393   -3.8073    0.5531 H   0  0  0  0  0  0
    3.6653    0.8542   -0.4902 H   0  0  0  0  0  0
    4.1168   -0.3595   -1.6551 H   0  0  0  0  0  0
    1.4333    0.8066    0.3554 H   0  0  0  0  0  0
    1.9867   -0.4181    1.4750 H   0  0  0  0  0  0
   -0.4635   -0.5610    1.2814 H   0  0  0  0  0  0
   -0.3776   -0.6316   -0.4596 H   0  0  0  0  0  0
    0.6220   -2.7746    1.4939 H   0  0  0  0  0  0
   -0.7347   -2.8938    0.3990 H   0  0  0  0  0  0
    0.1625   -4.7642   -0.7944 H   0  0  0  0  0  0
    1.5362   -4.8079    0.3053 H   0  0  0  0  0  0
    1.7961   -4.7156   -1.4402 H   0  0  0  0  0  0
    2.3965   -0.8406   -0.5682 N   0  3  2  0  0  0
    1.9557   -0.6094   -1.4428 H   0  0  0  0  0  0
    1.1366   -2.9085   -0.5635 N   0  0  0  0  0  0
  1  2  1  0  0  0
  1 11  1  0  0  0
  1 25  1  0  0  0
  1 27  1  0  0  0
  2  3  1  0  0  0
  2 12  1  0  0  0
  2 13  1  0  0  0
  3  4  2  0  0  0
  4  5  1  0  0  0
  4  9  1  0  0  0
  5 14  1  0  0  0
  5 15  1  0  0  0
  5 25  1  0  0  0
  6  7  1  0  0  0
  6 16  1  0  0  0
  6 17  1  0  0  0
  6 25  1  0  0  0
  7  8  1  0  0  0
  7 18  1  0  0  0
  7 19  1  0  0  0
  8 20  1  0  0  0
  8 21  1  0  0  0
  8 27  1  0  0  0
 10 22  1  0  0  0
 10 23  1  0  0  0
 10 24  1  0  0  0
 10 27  1  0  0  0
 25 26  1  0  0  0
M  CHG  2   9  -1  25   1
M  END
> <s_m_entry_name>
Schrodinger_fragment_490

> <i_m_number_of_atoms>
29

> <r_m_molecular_weight>
171.24419

> <s_m_molecular_formula>
C8H17N3O1

> <r_epik_Ionization_Penalty>
  3.2778

> <r_epik_Ionization_Penalty_Charging>
  3.2778

> <r_epik_Ionization_Penalty_Neutral>
  0.0000

> <r_epik_State_Penalty>
  4.1976

> <i_epik_Tot_Q>
0

> <r_epik_Metal_State_Penalty>
  1.0559

> <b_epik_Metal_Only>
1

> <s_m_entry_id>
4961

> <s_canvas_Unique_SMILES_Stereo>
CN1CCC[N@H+]([C@H]12)CC([O-])=NC2

$$$$
Schrodinger_fragment_397
                    3D
 Structure written by MMmdl.
 28 29  0  0  1  0            999 V2000
    2.4614   -2.3286    0.5709 C   0  0  1  0  0  0
    3.4143   -2.7356   -0.5933 C   0  0  0  0  0  0
    4.6375   -1.9349   -0.6416 N   0  0  0  0  0  0
    4.7943   -0.7472   -0.0463 C   0  0  0  0  0  0
    3.6606   -0.2279    0.8601 C   0  0  0  0  0  0
    1.6037   -0.2896   -0.4667 C   0  0  0  0  0  0
    0.1949   -0.8986   -0.4983 C   0  0  0  0  0  0
    0.2527   -2.4313   -0.5687 C   0  0  0  0  0  0
    5.8229   -0.0899   -0.1891 O   0  0  0  0  0  0
    1.1439   -4.4491    0.5482 C   0  0  0  0  0  0
    2.9201   -2.6658    1.5035 H   0  0  0  0  0  0
    3.7017   -3.7827   -0.4930 H   0  0  0  0  0  0
    2.9250   -2.6491   -1.5629 H   0  0  0  0  0  0
    5.3961   -2.2819   -1.2128 H   0  0  0  0  0  0
    3.9838   -0.4030    1.8873 H   0  0  0  0  0  0
    3.5814    0.8560    0.7610 H   0  0  0  0  0  0
    2.1217   -0.4562   -1.4128 H   0  0  0  0  0  0
    1.5189    0.7922   -0.3493 H   0  0  0  0  0  0
   -0.3593   -0.5891    0.3892 H   0  0  0  0  0  0
   -0.3602   -0.5097   -1.3527 H   0  0  0  0  0  0
   -0.7541   -2.8403   -0.4753 H   0  0  0  0  0  0
    0.6247   -2.7493   -1.5431 H   0  0  0  0  0  0
    0.1380   -4.8475    0.6829 H   0  0  0  0  0  0
    1.7513   -4.8099    1.3788 H   0  0  0  0  0  0
    1.5444   -4.8679   -0.3752 H   0  0  0  0  0  0
    2.3279   -0.8620    0.6752 N   0  0  0  0  0  0
    1.1158   -2.9684    0.5128 N   0  3  1  0  0  0
    0.6682   -2.6990    1.3762 H   0  0  0  0  0  0
  1  2  1  0  0  0
  1 11  1  0  0  0
  1 26  1  0  0  0
  1 27  1  0  0  0
  2  3  1  0  0  0
  2 12  1  0  0  0
  2 13  1  0  0  0
  3  4  1  0  0  0
  3 14  1  0  0  0
  4  5  1  0  0  0
  4  9  2  0  0  0
  5 15  1  0  0  0
  5 16  1  0  0  0
  5 26  1  0  0  0
  6  7  1  0  0  0
  6 17  1  0  0  0
  6 18  1  0  0  0
  6 26  1  0  0  0
  7  8  1  0  0  0
  7 19  1  0  0  0
  7 20  1  0  0  0
  8 21  1  0  0  0
  8 22  1  0  0  0
  8 27  1  0  0  0
 10 23  1  0  0  0
 10 24  1  0  0  0
 10 25  1  0  0  0
 10 27  1  0  0  0
 27 28  1  0  0  0
M  CHG  1  27   1
M  END
> <s_m_entry_name>
Schrodinger_fragment_491

> <i_m_number_of_atoms>
29

> <r_m_molecular_weight>
171.24419

> <s_m_molecular_formula>
C8H17N3O1

> <r_epik_Ionization_Penalty>
  0.0059

> <r_epik_Ionization_Penalty_Charging>
  0.0043

> <r_epik_Ionization_Penalty_Neutral>
  0.0016

> <r_epik_State_Penalty>
  0.1395

> <i_epik_Tot_Q>
1

> <r_epik_Metal_State_Penalty>
  0.1970

> <b_epik_Metal_Only>
0

> <s_m_entry_id>
4962

> <s_canvas_Unique_SMILES_Stereo>
C[N@@H+]1CCCN([C@@H]12)CC(=O)NC2

$$$$
Schrodinger_fragment_397_a
                    3D
 Structure written by MMmdl.
 27 28  0  0  1  0            999 V2000
    2.4598   -2.3210    0.5910 C   0  0  1  0  0  0
    3.4227   -2.7079   -0.5817 C   0  0  0  0  0  0
    4.6407   -1.8908   -0.6982 N   0  0  0  0  0  0
    4.7464   -0.7734   -0.1044 C   0  0  0  0  0  0
    3.6478   -0.2663    0.8589 C   0  0  0  0  0  0
    1.6074   -0.2878   -0.4595 C   0  0  0  0  0  0
    0.1965   -0.8896   -0.4996 C   0  0  0  0  0  0
    0.2553   -2.4222   -0.5696 C   0  0  0  0  0  0
    5.7321   -0.0468   -0.2392 O   0  5  0  0  0  0
    1.1485   -4.4403    0.5454 C   0  0  0  0  0  0
    2.9131   -2.6608    1.5254 H   0  0  0  0  0  0
    3.7146   -3.7521   -0.4584 H   0  0  0  0  0  0
    2.8974   -2.6743   -1.5365 H   0  0  0  0  0  0
    3.9790   -0.4751    1.8783 H   0  0  0  0  0  0
    3.5708    0.8216    0.7964 H   0  0  0  0  0  0
    2.1348   -0.4727   -1.3967 H   0  0  0  0  0  0
    1.5368    0.7957   -0.3496 H   0  0  0  0  0  0
   -0.3635   -0.5781    0.3835 H   0  0  0  0  0  0
   -0.3505   -0.5002   -1.3591 H   0  0  0  0  0  0
   -0.7516   -2.8315   -0.4797 H   0  0  0  0  0  0
    0.6302   -2.7398   -1.5427 H   0  0  0  0  0  0
    0.1436   -4.8442    0.6698 H   0  0  0  0  0  0
    1.7513   -4.7991    1.3801 H   0  0  0  0  0  0
    1.5605   -4.8526   -0.3757 H   0  0  0  0  0  0
    2.3161   -0.8602    0.6902 N   0  0  0  0  0  0
    1.1144   -2.9603    0.5150 N   0  3  1  0  0  0
    0.6602   -2.6961    1.3761 H   0  0  0  0  0  0
  1  2  1  0  0  0
  1 11  1  0  0  0
  1 25  1  0  0  0
  1 26  1  0  0  0
  2  3  1  0  0  0
  2 12  1  0  0  0
  2 13  1  0  0  0
  3  4  2  0  0  0
  4  5  1  0  0  0
  4  9  1  0  0  0
  5 14  1  0  0  0
  5 15  1  0  0  0
  5 25  1  0  0  0
  6  7  1  0  0  0
  6 16  1  0  0  0
  6 17  1  0  0  0
  6 25  1  0  0  0
  7  8  1  0  0  0
  7 18  1  0  0  0
  7 19  1  0  0  0
  8 20  1  0  0  0
  8 21  1  0  0  0
  8 26  1  0  0  0
 10 22  1  0  0  0
 10 23  1  0  0  0
 10 24  1  0  0  0
 10 26  1  0  0  0
 26 27  1  0  0  0
M  CHG  2   9  -1  26   1
M  END
> <s_m_entry_name>
Schrodinger_fragment_491

> <i_m_number_of_atoms>
29

> <r_m_molecular_weight>
171.24419

> <s_m_molecular_formula>
C8H17N3O1

> <r_epik_Ionization_Penalty>
  5.4541

> <r_epik_Ionization_Penalty_Charging>
  5.4508

> <r_epik_Ionization_Penalty_Neutral>
  0.0033

> <r_epik_State_Penalty>
  5.5898

> <i_epik_Tot_Q>
0

> <r_epik_Metal_State_Penalty>
  1.5546

> <b_epik_Metal_Only>
1

> <s_m_entry_id>
4963

> <s_canvas_Unique_SMILES_Stereo>
C[N@@H+]1CCCN([C@@H]12)CC([O-])=NC2

$$$$
Schrodinger_fragment_398
                    3D
 Structure written by MMmdl.
 28 29  0  0  1  0            999 V2000
    2.4653   -2.2781   -0.1889 C   0  0  2  0  0  0
    3.7275   -2.9626    0.4093 C   0  0  0  0  0  0
    4.9542   -2.1932    0.2193 N   0  0  0  0  0  0
    4.9867   -0.8705    0.0393 C   0  0  0  0  0  0
    3.6494   -0.1212   -0.0838 C   0  0  0  0  0  0
    1.2537   -0.1382   -0.1246 C   0  0  0  0  0  0
    0.0009   -0.8644    0.3624 C   0  0  0  0  0  0
   -0.0210   -2.2852   -0.2024 C   0  0  0  0  0  0
    6.0504   -0.2613   -0.0529 O   0  0  0  0  0  0
    1.1710   -4.4121   -0.3278 C   0  0  0  0  0  0
    2.5458   -2.2581   -1.2789 H   0  0  0  0  0  0
    3.5977   -3.1312    1.4793 H   0  0  0  0  0  0
    3.8915   -3.9391   -0.0457 H   0  0  0  0  0  0
    5.8326   -2.6898    0.2798 H   0  0  0  0  0  0
    3.7087    0.7966    0.5034 H   0  0  0  0  0  0
    3.5703    0.1846   -1.1290 H   0  0  0  0  0  0
    1.2329   -0.0358   -1.2122 H   0  0  0  0  0  0
    1.2711    0.8719    0.2894 H   0  0  0  0  0  0
   -0.0267   -0.8850    1.4529 H   0  0  0  0  0  0
   -0.8907   -0.3244    0.0416 H   0  0  0  0  0  0
   -0.8987   -2.8128    0.1733 H   0  0  0  0  0  0
   -0.1132   -2.2535   -1.2894 H   0  0  0  0  0  0
    0.2210   -4.8855   -0.0781 H   0  0  0  0  0  0
    1.9481   -5.0314    0.1179 H   0  0  0  0  0  0
    1.2844   -4.4462   -1.4119 H   0  0  0  0  0  0
    2.4349   -0.8864    0.3132 N   0  0  0  0  0  0
    1.2138   -3.0161    0.1742 N   0  3  1  0  0  0
    1.2032   -3.0811    1.1809 H   0  0  0  0  0  0
  1  2  1  0  0  0
  1 11  1  0  0  0
  1 26  1  0  0  0
  1 27  1  0  0  0
  2  3  1  0  0  0
  2 12  1  0  0  0
  2 13  1  0  0  0
  3  4  1  0  0  0
  3 14  1  0  0  0
  4  5  1  0  0  0
  4  9  2  0  0  0
  5 15  1  0  0  0
  5 16  1  0  0  0
  5 26  1  0  0  0
  6  7  1  0  0  0
  6 17  1  0  0  0
  6 18  1  0  0  0
  6 26  1  0  0  0
  7  8  1  0  0  0
  7 19  1  0  0  0
  7 20  1  0  0  0
  8 21  1  0  0  0
  8 22  1  0  0  0
  8 27  1  0  0  0
 10 23  1  0  0  0
 10 24  1  0  0  0
 10 25  1  0  0  0
 10 27  1  0  0  0
 27 28  1  0  0  0
M  CHG  1  27   1
M  END
> <s_m_entry_name>
Schrodinger_fragment_492

> <i_m_number_of_atoms>
29

> <r_m_molecular_weight>
171.24419

> <s_m_molecular_formula>
C8H17N3O1

> <r_epik_Ionization_Penalty>
  0.0059

> <r_epik_Ionization_Penalty_Charging>
  0.0043

> <r_epik_Ionization_Penalty_Neutral>
  0.0016

> <r_epik_State_Penalty>
  0.1395

> <i_epik_Tot_Q>
1

> <r_epik_Metal_State_Penalty>
  0.1970

> <b_epik_Metal_Only>
0

> <s_m_entry_id>
4964

> <s_canvas_Unique_SMILES_Stereo>
C[N@@H+]1CCCN([C@H]12)CC(=O)NC2

$$$$
Schrodinger_fragment_398_a
                    3D
 Structure written by MMmdl.
 27 28  0  0  1  0            999 V2000
    2.4606   -2.2646   -0.2077 C   0  0  2  0  0  0
    3.7412   -2.9454    0.3758 C   0  0  0  0  0  0
    4.9868   -2.1725    0.2667 N   0  0  0  0  0  0
    4.9622   -0.9179    0.0836 C   0  0  0  0  0  0
    3.6312   -0.1685   -0.1231 C   0  0  0  0  0  0
    1.2595   -0.1338   -0.1134 C   0  0  0  0  0  0
    0.0040   -0.8549    0.3759 C   0  0  0  0  0  0
   -0.0223   -2.2773   -0.1868 C   0  0  0  0  0  0
    5.9883   -0.2377    0.0376 O   0  5  0  0  0  0
    1.1752   -4.4005   -0.3310 C   0  0  0  0  0  0
    2.5201   -2.2288   -1.2986 H   0  0  0  0  0  0
    3.5749   -3.1906    1.4269 H   0  0  0  0  0  0
    3.8955   -3.9009   -0.1272 H   0  0  0  0  0  0
    3.6751    0.7922    0.3951 H   0  0  0  0  0  0
    3.5438    0.0638   -1.1873 H   0  0  0  0  0  0
    1.2408   -0.0363   -1.2012 H   0  0  0  0  0  0
    1.2876    0.8767    0.2986 H   0  0  0  0  0  0
   -0.0228   -0.8741    1.4665 H   0  0  0  0  0  0
   -0.8861   -0.3125    0.0550 H   0  0  0  0  0  0
   -0.8944   -2.8066    0.1991 H   0  0  0  0  0  0
   -0.1262   -2.2459   -1.2727 H   0  0  0  0  0  0
    0.2317   -4.8798   -0.0685 H   0  0  0  0  0  0
    1.9635   -5.0149    0.1017 H   0  0  0  0  0  0
    1.2741   -4.4297   -1.4165 H   0  0  0  0  0  0
    2.4334   -0.8901    0.3235 N   0  0  0  0  0  0
    1.2185   -3.0062    0.1738 N   0  3  1  0  0  0
    1.2274   -3.0721    1.1802 H   0  0  0  0  0  0
  1  2  1  0  0  0
  1 11  1  0  0  0
  1 25  1  0  0  0
  1 26  1  0  0  0
  2  3  1  0  0  0
  2 12  1  0  0  0
  2 13  1  0  0  0
  3  4  2  0  0  0
  4  5  1  0  0  0
  4  9  1  0  0  0
  5 14  1  0  0  0
  5 15  1  0  0  0
  5 25  1  0  0  0
  6  7  1  0  0  0
  6 16  1  0  0  0
  6 17  1  0  0  0
  6 25  1  0  0  0
  7  8  1  0  0  0
  7 18  1  0  0  0
  7 19  1  0  0  0
  8 20  1  0  0  0
  8 21  1  0  0  0
  8 26  1  0  0  0
 10 22  1  0  0  0
 10 23  1  0  0  0
 10 24  1  0  0  0
 10 26  1  0  0  0
 26 27  1  0  0  0
M  CHG  2   9  -1  26   1
M  END
> <s_m_entry_name>
Schrodinger_fragment_492

> <i_m_number_of_atoms>
29

> <r_m_molecular_weight>
171.24419

> <s_m_molecular_formula>
C8H17N3O1

> <r_epik_Ionization_Penalty>
  5.4541

> <r_epik_Ionization_Penalty_Charging>
  5.4508

> <r_epik_Ionization_Penalty_Neutral>
  0.0033

> <r_epik_State_Penalty>
  5.5898

> <i_epik_Tot_Q>
0

> <r_epik_Metal_State_Penalty>
  1.5546

> <b_epik_Metal_Only>
1

> <s_m_entry_id>
4965

> <s_canvas_Unique_SMILES_Stereo>
C[N@@H+]1CCCN([C@H]12)CC([O-])=NC2

$$$$
Schrodinger_fragment_399
                    3D
 Structure written by MMmdl.
 31 32  0  0  1  0            999 V2000
    2.4616   -2.3233    0.2412 C   0  0  1  0  0  0
    3.7767   -2.8671   -0.3943 C   0  0  0  0  0  0
    4.9692   -2.1803    0.1140 N   0  0  0  0  0  0
    4.9623   -0.8395    0.2377 C   0  0  0  0  0  0
    3.6679   -0.1293   -0.1788 C   0  0  0  0  0  0
    1.2249   -0.1942   -0.2819 C   0  0  0  0  0  0
    0.0299   -0.8419    0.4172 C   0  0  0  0  0  0
   -0.0457   -2.3537    0.1445 C   0  0  0  0  0  0
    5.9202   -0.1866    0.6595 O   0  0  0  0  0  0
    1.1931   -4.4106   -0.3193 C   0  0  0  0  0  0
    6.1340   -2.9975    0.4616 C   0  0  0  0  0  0
    2.4671   -2.6116    1.2949 H   0  0  0  0  0  0
    3.8738   -3.9335   -0.1919 H   0  0  0  0  0  0
    3.7517   -2.7568   -1.4797 H   0  0  0  0  0  0
    3.6658    0.8845    0.2242 H   0  0  0  0  0  0
    3.6880   -0.0347   -1.2659 H   0  0  0  0  0  0
    1.1563   -0.2992   -1.3667 H   0  0  0  0  0  0
    1.2419    0.8756   -0.0656 H   0  0  0  0  0  0
    0.1077   -0.6692    1.4919 H   0  0  0  0  0  0
   -0.8985   -0.3613    0.1062 H   0  0  0  0  0  0
   -0.3471   -2.8619    1.0619 H   0  0  0  0  0  0
   -0.8277   -2.5562   -0.5887 H   0  0  0  0  0  0
    0.2481   -4.7856   -0.7136 H   0  0  0  0  0  0
    1.2974   -4.7787    0.7019 H   0  0  0  0  0  0
    1.9784   -4.8568   -0.9283 H   0  0  0  0  0  0
    7.0691   -2.4920    0.2143 H   0  0  0  0  0  0
    6.1368   -3.9476   -0.0735 H   0  0  0  0  0  0
    6.1387   -3.2103    1.5310 H   0  0  0  0  0  0
    2.4306   -0.8364    0.2379 N   0  0  0  0  0  0
    1.2308   -2.9278   -0.3640 N   0  3  2  0  0  0
    1.2595   -2.6938   -1.3450 H   0  0  0  0  0  0
  1  2  1  0  0  0
  1 12  1  0  0  0
  1 29  1  0  0  0
  1 30  1  0  0  0
  2  3  1  0  0  0
  2 13  1  0  0  0
  2 14  1  0  0  0
  3  4  1  0  0  0
  3 11  1  0  0  0
  4  5  1  0  0  0
  4  9  2  0  0  0
  5 15  1  0  0  0
  5 16  1  0  0  0
  5 29  1  0  0  0
  6  7  1  0  0  0
  6 17  1  0  0  0
  6 18  1  0  0  0
  6 29  1  0  0  0
  7  8  1  0  0  0
  7 19  1  0  0  0
  7 20  1  0  0  0
  8 21  1  0  0  0
  8 22  1  0  0  0
  8 30  1  0  0  0
 10 23  1  0  0  0
 10 24  1  0  0  0
 10 25  1  0  0  0
 10 30  1  0  0  0
 11 26  1  0  0  0
 11 27  1  0  0  0
 11 28  1  0  0  0
 30 31  1  0  0  0
M  CHG  1  30   1
M  END
> <s_m_entry_name>
Schrodinger_fragment_495

> <i_m_number_of_atoms>
32

> <r_m_molecular_weight>
185.27128

> <s_m_molecular_formula>
C9H19N3O1

> <r_epik_Ionization_Penalty>
  0.0054

> <r_epik_Ionization_Penalty_Charging>
  0.0032

> <r_epik_Ionization_Penalty_Neutral>
  0.0022

> <r_epik_State_Penalty>
  0.1490

> <i_epik_Tot_Q>
1

> <r_epik_Metal_State_Penalty>
  0.1490

> <b_epik_Metal_Only>
0

> <s_m_entry_id>
4966

> <s_canvas_Unique_SMILES_Stereo>
CN(C1)C(=O)CN([C@H]12)CCC[N@@H+]2C

$$$$
Schrodinger_fragment_399_a
                    3D
 Structure written by MMmdl.
 31 32  0  0  1  0            999 V2000
    2.4399   -2.3129    0.3009 C   0  0  1  0  0  0
    3.7536   -2.9824   -0.2036 C   0  0  0  0  0  0
    4.9564   -2.2165    0.1413 N   0  0  0  0  0  0
    4.9750   -0.8831   -0.0454 C   0  0  0  0  0  0
    3.6596   -0.2421   -0.4857 C   0  0  0  0  0  0
    1.2262   -0.1496   -0.1294 C   0  0  0  0  0  0
    0.0372   -0.8518    0.5349 C   0  0  0  0  0  0
    0.0026   -2.3590    0.2223 C   0  0  0  0  0  0
    5.9716   -0.1829    0.1546 O   0  0  0  0  0  0
    1.1756   -4.2991   -0.4363 C   0  0  0  0  0  0
    6.1422   -2.9509    0.5895 C   0  0  0  0  0  0
    2.3360   -2.5665    1.3583 H   0  0  0  0  0  0
    3.8224   -3.9959    0.1926 H   0  0  0  0  0  0
    3.7316   -3.0770   -1.2911 H   0  0  0  0  0  0
    3.7103    0.8353   -0.3253 H   0  0  0  0  0  0
    3.5372   -0.4029   -1.5573 H   0  0  0  0  0  0
    1.1060   -0.1833   -1.2135 H   0  0  0  0  0  0
    1.2527    0.9037    0.1515 H   0  0  0  0  0  0
    0.0900   -0.7079    1.6151 H   0  0  0  0  0  0
   -0.8972   -0.3856    0.2200 H   0  0  0  0  0  0
   -0.2026   -2.9055    1.1458 H   0  0  0  0  0  0
   -0.8306   -2.5729   -0.4502 H   0  0  0  0  0  0
    0.2483   -4.6308   -0.9067 H   0  0  0  0  0  0
    1.2127   -4.7303    0.5659 H   0  0  0  0  0  0
    1.9872   -4.7319   -1.0220 H   0  0  0  0  0  0
    6.3909   -2.6800    1.6165 H   0  0  0  0  0  0
    7.0035   -2.7152   -0.0378 H   0  0  0  0  0  0
    6.0051   -4.0319    0.5550 H   0  0  0  0  0  0
    2.5004   -0.8094    0.2496 N   0  3  1  0  0  0
    2.6729   -0.5431    1.2085 H   0  0  0  0  0  0
    1.2458   -2.8364   -0.4001 N   0  0  0  0  0  0
  1  2  1  0  0  0
  1 12  1  0  0  0
  1 29  1  0  0  0
  1 31  1  0  0  0
  2  3  1  0  0  0
  2 13  1  0  0  0
  2 14  1  0  0  0
  3  4  1  0  0  0
  3 11  1  0  0  0
  4  5  1  0  0  0
  4  9  2  0  0  0
  5 15  1  0  0  0
  5 16  1  0  0  0
  5 29  1  0  0  0
  6  7  1  0  0  0
  6 17  1  0  0  0
  6 18  1  0  0  0
  6 29  1  0  0  0
  7  8  1  0  0  0
  7 19  1  0  0  0
  7 20  1  0  0  0
  8 21  1  0  0  0
  8 22  1  0  0  0
  8 31  1  0  0  0
 10 23  1  0  0  0
 10 24  1  0  0  0
 10 25  1  0  0  0
 10 31  1  0  0  0
 11 26  1  0  0  0
 11 27  1  0  0  0
 11 28  1  0  0  0
 29 30  1  0  0  0
M  CHG  1  29   1
M  END
> <s_m_entry_name>
Schrodinger_fragment_495

> <i_m_number_of_atoms>
32

> <r_m_molecular_weight>
185.27128

> <s_m_molecular_formula>
C9H19N3O1

> <r_epik_Ionization_Penalty>
  0.0113

> <r_epik_Ionization_Penalty_Charging>
  0.0113

> <r_epik_Ionization_Penalty_Neutral>
  0.0000

> <r_epik_State_Penalty>
  0.8907

> <i_epik_Tot_Q>
1

> <r_epik_Metal_State_Penalty>
  0.8907

> <b_epik_Metal_Only>
0

> <s_m_entry_id>
4967

> <s_canvas_Unique_SMILES_Stereo>
CN(C1)C(=O)C[N@H+]([C@H]12)CCCN2C

$$$$
Schrodinger_fragment_400
                    3D
 Structure written by MMmdl.
 31 32  0  0  1  0            999 V2000
    2.4710   -2.2060   -0.4896 C   0  0  2  0  0  0
    3.6413   -2.9677    0.1905 C   0  0  0  0  0  0
    4.9097   -2.2222    0.1787 N   0  0  0  0  0  0
    4.9672   -0.8773    0.0511 C   0  0  0  0  0  0
    3.6498   -0.1018   -0.1366 C   0  0  0  0  0  0
    1.2128   -0.1254   -0.1816 C   0  0  0  0  0  0
   -0.0199   -0.8714    0.3698 C   0  0  0  0  0  0
    0.2272   -2.3760    0.5968 C   0  0  0  0  0  0
    6.0308   -0.2521    0.0645 O   0  0  0  0  0  0
    1.1928   -4.3909   -0.4588 C   0  0  0  0  0  0
    6.1262   -3.0167    0.3664 C   0  0  0  0  0  0
    2.7024   -2.0875   -1.5511 H   0  0  0  0  0  0
    3.3906   -3.1943    1.2278 H   0  0  0  0  0  0
    3.8056   -3.9203   -0.3136 H   0  0  0  0  0  0
    3.6770    0.7848    0.4984 H   0  0  0  0  0  0
    3.6293    0.2526   -1.1688 H   0  0  0  0  0  0
    1.1358   -0.0059   -1.2646 H   0  0  0  0  0  0
    1.2494    0.8805    0.2411 H   0  0  0  0  0  0
   -0.3344   -0.4239    1.3135 H   0  0  0  0  0  0
   -0.8554   -0.7280   -0.3166 H   0  0  0  0  0  0
    0.6728   -2.5394    1.5796 H   0  0  0  0  0  0
   -0.7230   -2.9113    0.5918 H   0  0  0  0  0  0
    0.1934   -4.8048   -0.5947 H   0  0  0  0  0  0
    1.5921   -4.7953    0.4717 H   0  0  0  0  0  0
    1.8044   -4.7512   -1.2864 H   0  0  0  0  0  0
    6.7401   -2.6071    1.1703 H   0  0  0  0  0  0
    6.7229   -3.0193   -0.5468 H   0  0  0  0  0  0
    5.9064   -4.0530    0.6256 H   0  0  0  0  0  0
    2.4212   -0.8777    0.1517 N   0  0  0  0  0  0
    1.1445   -2.9095   -0.4374 N   0  3  2  0  0  0
    0.6988   -2.6726   -1.3116 H   0  0  0  0  0  0
  1  2  1  0  0  0
  1 12  1  0  0  0
  1 29  1  0  0  0
  1 30  1  0  0  0
  2  3  1  0  0  0
  2 13  1  0  0  0
  2 14  1  0  0  0
  3  4  1  0  0  0
  3 11  1  0  0  0
  4  5  1  0  0  0
  4  9  2  0  0  0
  5 15  1  0  0  0
  5 16  1  0  0  0
  5 29  1  0  0  0
  6  7  1  0  0  0
  6 17  1  0  0  0
  6 18  1  0  0  0
  6 29  1  0  0  0
  7  8  1  0  0  0
  7 19  1  0  0  0
  7 20  1  0  0  0
  8 21  1  0  0  0
  8 22  1  0  0  0
  8 30  1  0  0  0
 10 23  1  0  0  0
 10 24  1  0  0  0
 10 25  1  0  0  0
 10 30  1  0  0  0
 11 26  1  0  0  0
 11 27  1  0  0  0
 11 28  1  0  0  0
 30 31  1  0  0  0
M  CHG  1  30   1
M  END
> <s_m_entry_name>
Schrodinger_fragment_496

> <i_m_number_of_atoms>
32

> <r_m_molecular_weight>
185.27128

> <s_m_molecular_formula>
C9H19N3O1

> <r_epik_Ionization_Penalty>
  0.0054

> <r_epik_Ionization_Penalty_Charging>
  0.0032

> <r_epik_Ionization_Penalty_Neutral>
  0.0022

> <r_epik_State_Penalty>
  0.1490

> <i_epik_Tot_Q>
1

> <r_epik_Metal_State_Penalty>
  0.1490

> <b_epik_Metal_Only>
0

> <s_m_entry_id>
4968

> <s_canvas_Unique_SMILES_Stereo>
CN(C1)C(=O)CN([C@@H]12)CCC[N@@H+]2C

$$$$
Schrodinger_fragment_400_a
                    3D
 Structure written by MMmdl.
 31 32  0  0  1  0            999 V2000
    2.4705   -2.2204   -0.5055 C   0  0  2  0  0  0
    3.6258   -2.9909    0.1760 C   0  0  0  0  0  0
    4.8773   -2.2109    0.2352 N   0  0  0  0  0  0
    4.9590   -0.8783   -0.0124 C   0  0  0  0  0  0
    3.6727   -0.0970   -0.3322 C   0  0  0  0  0  0
    1.1798   -0.1393   -0.1525 C   0  0  0  0  0  0
    0.0416   -0.9112    0.5500 C   0  0  0  0  0  0
    0.3036   -2.4307    0.6658 C   0  0  0  0  0  0
    6.0305   -0.2664    0.0194 O   0  0  0  0  0  0
    1.1511   -4.3179   -0.5992 C   0  0  0  0  0  0
    6.0762   -2.9812    0.5768 C   0  0  0  0  0  0
    2.7096   -2.1423   -1.5685 H   0  0  0  0  0  0
    3.3494   -3.2680    1.1946 H   0  0  0  0  0  0
    3.8189   -3.9196   -0.3628 H   0  0  0  0  0  0
    3.6996    0.8579    0.1931 H   0  0  0  0  0  0
    3.6509    0.1220   -1.4001 H   0  0  0  0  0  0
    0.9865   -0.0718   -1.2242 H   0  0  0  0  0  0
    1.2309    0.8825    0.2250 H   0  0  0  0  0  0
   -0.1226   -0.5078    1.5501 H   0  0  0  0  0  0
   -0.8873   -0.7347    0.0062 H   0  0  0  0  0  0
    0.8001   -2.6691    1.6088 H   0  0  0  0  0  0
   -0.6491   -2.9640    0.6730 H   0  0  0  0  0  0
    0.1375   -4.7017   -0.7246 H   0  0  0  0  0  0
    1.5833   -4.8095    0.2740 H   0  0  0  0  0  0
    1.7215   -4.6186   -1.4795 H   0  0  0  0  0  0
    6.6116   -2.5221    1.4096 H   0  0  0  0  0  0
    6.7551   -3.0298   -0.2758 H   0  0  0  0  0  0
    5.8383   -4.0043    0.8708 H   0  0  0  0  0  0
    2.4596   -0.8461    0.0570 N   0  3  1  0  0  0
    2.5433   -0.9558    1.0558 H   0  0  0  0  0  0
    1.1366   -2.8637   -0.4555 N   0  0  0  0  0  0
  1  2  1  0  0  0
  1 12  1  0  0  0
  1 29  1  0  0  0
  1 31  1  0  0  0
  2  3  1  0  0  0
  2 13  1  0  0  0
  2 14  1  0  0  0
  3  4  1  0  0  0
  3 11  1  0  0  0
  4  5  1  0  0  0
  4  9  2  0  0  0
  5 15  1  0  0  0
  5 16  1  0  0  0
  5 29  1  0  0  0
  6  7  1  0  0  0
  6 17  1  0  0  0
  6 18  1  0  0  0
  6 29  1  0  0  0
  7  8  1  0  0  0
  7 19  1  0  0  0
  7 20  1  0  0  0
  8 21  1  0  0  0
  8 22  1  0  0  0
  8 31  1  0  0  0
 10 23  1  0  0  0
 10 24  1  0  0  0
 10 25  1  0  0  0
 10 31  1  0  0  0
 11 26  1  0  0  0
 11 27  1  0  0  0
 11 28  1  0  0  0
 29 30  1  0  0  0
M  CHG  1  29   1
M  END
> <s_m_entry_name>
Schrodinger_fragment_496

> <i_m_number_of_atoms>
32

> <r_m_molecular_weight>
185.27128

> <s_m_molecular_formula>
C9H19N3O1

> <r_epik_Ionization_Penalty>
  0.0113

> <r_epik_Ionization_Penalty_Charging>
  0.0113

> <r_epik_Ionization_Penalty_Neutral>
  0.0000

> <r_epik_State_Penalty>
  0.8907

> <i_epik_Tot_Q>
1

> <r_epik_Metal_State_Penalty>
  0.8907

> <b_epik_Metal_Only>
0

> <s_m_entry_id>
4969

> <s_canvas_Unique_SMILES_Stereo>
CN(C1)C(=O)C[N@H+]([C@@H]12)CCCN2C

$$$$
Schrodinger_fragment_401
                    3D
 Structure written by MMmdl.
 31 32  0  0  1  0            999 V2000
    2.4245   -2.2795    0.2933 C   0  0  1  0  0  0
    3.7312   -2.9871   -0.1546 C   0  0  0  0  0  0
    4.9564   -2.1959    0.0223 N   0  0  0  0  0  0
    4.9688   -0.8740    0.3013 C   0  0  0  0  0  0
    3.6355   -0.1344    0.4515 C   0  0  0  0  0  0
    1.2093   -0.1183    0.1130 C   0  0  0  0  0  0
    0.0224   -0.8787   -0.4802 C   0  0  0  0  0  0
   -0.0058   -2.3019    0.0776 C   0  0  0  0  0  0
    6.0181   -0.2386    0.4408 O   0  0  0  0  0  0
    1.1402   -4.3563    0.1985 C   0  0  0  0  0  0
    6.2100   -2.9372   -0.1428 C   0  0  0  0  0  0
    2.3590   -2.3016    1.3839 H   0  0  0  0  0  0
    3.8485   -3.9206    0.3969 H   0  0  0  0  0  0
    3.6661   -3.2527   -1.2113 H   0  0  0  0  0  0
    3.4702    0.0319    1.5164 H   0  0  0  0  0  0
    3.7251    0.8477   -0.0137 H   0  0  0  0  0  0
    1.2678    0.8795   -0.3231 H   0  0  0  0  0  0
    1.0613    0.0138    1.1859 H   0  0  0  0  0  0
   -0.9072   -0.3640   -0.2345 H   0  0  0  0  0  0
    0.0847   -0.8990   -1.5694 H   0  0  0  0  0  0
   -0.1501   -2.2878    1.1605 H   0  0  0  0  0  0
   -0.8563   -2.8374   -0.3490 H   0  0  0  0  0  0
    0.2372   -4.8315   -0.1886 H   0  0  0  0  0  0
    1.1008   -4.4084    1.2883 H   0  0  0  0  0  0
    1.9745   -4.9709   -0.1401 H   0  0  0  0  0  0
    6.8495   -2.4610   -0.8879 H   0  0  0  0  0  0
    6.0422   -3.9641   -0.4701 H   0  0  0  0  0  0
    6.7592   -2.9750    0.7991 H   0  0  0  0  0  0
    2.4748   -0.8516   -0.1291 N   0  3  2  0  0  0
    2.6208   -0.8634   -1.1273 H   0  0  0  0  0  0
    1.2470   -2.9744   -0.2763 N   0  0  0  0  0  0
  1  2  1  0  0  0
  1 12  1  0  0  0
  1 29  1  0  0  0
  1 31  1  0  0  0
  2  3  1  0  0  0
  2 13  1  0  0  0
  2 14  1  0  0  0
  3  4  1  0  0  0
  3 11  1  0  0  0
  4  5  1  0  0  0
  4  9  2  0  0  0
  5 15  1  0  0  0
  5 16  1  0  0  0
  5 29  1  0  0  0
  6  7  1  0  0  0
  6 17  1  0  0  0
  6 18  1  0  0  0
  6 29  1  0  0  0
  7  8  1  0  0  0
  7 19  1  0  0  0
  7 20  1  0  0  0
  8 21  1  0  0  0
  8 22  1  0  0  0
  8 31  1  0  0  0
 10 23  1  0  0  0
 10 24  1  0  0  0
 10 25  1  0  0  0
 10 31  1  0  0  0
 11 26  1  0  0  0
 11 27  1  0  0  0
 11 28  1  0  0  0
 29 30  1  0  0  0
M  CHG  1  29   1
M  END
> <s_m_entry_name>
Schrodinger_fragment_497

> <i_m_number_of_atoms>
32

> <r_m_molecular_weight>
185.27128

> <s_m_molecular_formula>
C9H19N3O1

> <r_epik_Ionization_Penalty>
  0.0113

> <r_epik_Ionization_Penalty_Charging>
  0.0113

> <r_epik_Ionization_Penalty_Neutral>
  0.0000

> <r_epik_State_Penalty>
  0.8907

> <i_epik_Tot_Q>
1

> <r_epik_Metal_State_Penalty>
  0.8907

> <b_epik_Metal_Only>
0

> <s_m_entry_id>
4970

> <s_canvas_Unique_SMILES_Stereo>
CN(C1)C(=O)C[N@@H+]([C@H]12)CCCN2C

$$$$
Schrodinger_fragment_402
                    3D
 Structure written by MMmdl.
 31 32  0  0  1  0            999 V2000
    2.4160   -2.2925   -0.7237 C   0  0  2  0  0  0
    3.4760   -2.8727    0.2520 C   0  0  0  0  0  0
    4.7250   -2.0996    0.3024 N   0  0  0  0  0  0
    4.8675   -0.8511   -0.2001 C   0  0  0  0  0  0
    3.6716   -0.1745   -0.8871 C   0  0  0  0  0  0
    1.6932   -0.3341    0.6131 C   0  0  0  0  0  0
    0.3075   -0.9800    0.7574 C   0  0  0  0  0  0
    0.3974   -2.5097    0.6722 C   0  0  0  0  0  0
    5.9328   -0.2314   -0.1279 O   0  0  0  0  0  0
    1.0496   -4.3219   -0.7688 C   0  0  0  0  0  0
    5.8446   -2.7659    0.9738 C   0  0  0  0  0  0
    2.7500   -2.5176   -1.7391 H   0  0  0  0  0  0
    3.0927   -2.9207    1.2707 H   0  0  0  0  0  0
    3.7091   -3.8980   -0.0376 H   0  0  0  0  0  0
    3.6430    0.8827   -0.6224 H   0  0  0  0  0  0
    3.8577   -0.2142   -1.9604 H   0  0  0  0  0  0
    1.5894    0.7510    0.5843 H   0  0  0  0  0  0
    2.3064   -0.5664    1.4845 H   0  0  0  0  0  0
   -0.1405   -0.6871    1.7076 H   0  0  0  0  0  0
   -0.3604   -0.6064   -0.0202 H   0  0  0  0  0  0
    0.9195   -2.9174    1.5392 H   0  0  0  0  0  0
   -0.6091   -2.9319    0.6923 H   0  0  0  0  0  0
    0.0239   -4.6927   -0.8020 H   0  0  0  0  0  0
    1.5618   -4.8467    0.0393 H   0  0  0  0  0  0
    1.5251   -4.6013   -1.7104 H   0  0  0  0  0  0
    6.2373   -2.1474    1.7827 H   0  0  0  0  0  0
    6.6557   -2.9554    0.2691 H   0  0  0  0  0  0
    5.5549   -3.7227    1.4101 H   0  0  0  0  0  0
    2.3577   -0.8121   -0.6262 N   0  3  2  0  0  0
    1.7626   -0.5092   -1.3820 H   0  0  0  0  0  0
    1.0656   -2.8726   -0.5809 N   0  0  0  0  0  0
  1  2  1  0  0  0
  1 12  1  0  0  0
  1 29  1  0  0  0
  1 31  1  0  0  0
  2  3  1  0  0  0
  2 13  1  0  0  0
  2 14  1  0  0  0
  3  4  1  0  0  0
  3 11  1  0  0  0
  4  5  1  0  0  0
  4  9  2  0  0  0
  5 15  1  0  0  0
  5 16  1  0  0  0
  5 29  1  0  0  0
  6  7  1  0  0  0
  6 17  1  0  0  0
  6 18  1  0  0  0
  6 29  1  0  0  0
  7  8  1  0  0  0
  7 19  1  0  0  0
  7 20  1  0  0  0
  8 21  1  0  0  0
  8 22  1  0  0  0
  8 31  1  0  0  0
 10 23  1  0  0  0
 10 24  1  0  0  0
 10 25  1  0  0  0
 10 31  1  0  0  0
 11 26  1  0  0  0
 11 27  1  0  0  0
 11 28  1  0  0  0
 29 30  1  0  0  0
M  CHG  1  29   1
M  END
> <s_m_entry_name>
Schrodinger_fragment_498

> <i_m_number_of_atoms>
32

> <r_m_molecular_weight>
185.27128

> <s_m_molecular_formula>
C9H19N3O1

> <r_epik_Ionization_Penalty>
  0.0113

> <r_epik_Ionization_Penalty_Charging>
  0.0113

> <r_epik_Ionization_Penalty_Neutral>
  0.0000

> <r_epik_State_Penalty>
  0.8907

> <i_epik_Tot_Q>
1

> <r_epik_Metal_State_Penalty>
  0.8907

> <b_epik_Metal_Only>
0

> <s_m_entry_id>
4971

> <s_canvas_Unique_SMILES_Stereo>
CN(C1)C(=O)C[N@@H+]([C@@H]12)CCCN2C

$$$$
Schrodinger_fragment_403
                    3D
 Structure written by MMmdl.
 31 32  0  0  1  0            999 V2000
    2.4906   -2.3322    0.6529 C   0  0  1  0  0  0
    3.5010   -2.7490   -0.4535 C   0  0  0  0  0  0
    4.8078   -2.1185   -0.2384 N   0  0  0  0  0  0
    4.8752   -0.8261    0.1367 C   0  0  0  0  0  0
    3.5401   -0.0719    0.2311 C   0  0  0  0  0  0
    1.1068   -0.2480    0.4219 C   0  0  0  0  0  0
    0.5727   -0.9197   -0.8500 C   0  0  0  0  0  0
    0.3353   -2.4252   -0.6248 C   0  0  0  0  0  0
    5.9333   -0.2428    0.3854 O   0  0  0  0  0  0
    1.1425   -4.4421    0.5640 C   0  0  0  0  0  0
    6.0008   -2.9504   -0.4093 C   0  0  0  0  0  0
    2.8963   -2.6852    1.6038 H   0  0  0  0  0  0
    3.6212   -3.8321   -0.4595 H   0  0  0  0  0  0
    3.1363   -2.4722   -1.4434 H   0  0  0  0  0  0
    3.6723    0.8378    0.8184 H   0  0  0  0  0  0
    3.3121    0.2507   -0.7862 H   0  0  0  0  0  0
    1.1948    0.8325    0.2914 H   0  0  0  0  0  0
    0.3980   -0.3889    1.2402 H   0  0  0  0  0  0
   -0.3551   -0.4442   -1.1702 H   0  0  0  0  0  0
    1.2779   -0.7729   -1.6689 H   0  0  0  0  0  0
   -0.7171   -2.6069   -0.4031 H   0  0  0  0  0  0
    0.5550   -2.9667   -1.5459 H   0  0  0  0  0  0
    0.1227   -4.8164    0.6568 H   0  0  0  0  0  0
    1.7022   -4.8001    1.4285 H   0  0  0  0  0  0
    1.5753   -4.8875   -0.3317 H   0  0  0  0  0  0
    6.8267   -2.3836   -0.8423 H   0  0  0  0  0  0
    5.8132   -3.7950   -1.0730 H   0  0  0  0  0  0
    6.3288   -3.3418    0.5543 H   0  0  0  0  0  0
    2.3955   -0.8543    0.7797 N   0  0  0  0  0  0
    1.1457   -2.9619    0.5011 N   0  3  1  0  0  0
    0.6533   -2.6831    1.3369 H   0  0  0  0  0  0
  1  2  1  0  0  0
  1 12  1  0  0  0
  1 29  1  0  0  0
  1 30  1  0  0  0
  2  3  1  0  0  0
  2 13  1  0  0  0
  2 14  1  0  0  0
  3  4  1  0  0  0
  3 11  1  0  0  0
  4  5  1  0  0  0
  4  9  2  0  0  0
  5 15  1  0  0  0
  5 16  1  0  0  0
  5 29  1  0  0  0
  6  7  1  0  0  0
  6 17  1  0  0  0
  6 18  1  0  0  0
  6 29  1  0  0  0
  7  8  1  0  0  0
  7 19  1  0  0  0
  7 20  1  0  0  0
  8 21  1  0  0  0
  8 22  1  0  0  0
  8 30  1  0  0  0
 10 23  1  0  0  0
 10 24  1  0  0  0
 10 25  1  0  0  0
 10 30  1  0  0  0
 11 26  1  0  0  0
 11 27  1  0  0  0
 11 28  1  0  0  0
 30 31  1  0  0  0
M  CHG  1  30   1
M  END
> <s_m_entry_name>
Schrodinger_fragment_499

> <i_m_number_of_atoms>
32

> <r_m_molecular_weight>
185.27128

> <s_m_molecular_formula>
C9H19N3O1

> <r_epik_Ionization_Penalty>
  0.0054

> <r_epik_Ionization_Penalty_Charging>
  0.0032

> <r_epik_Ionization_Penalty_Neutral>
  0.0022

> <r_epik_State_Penalty>
  0.1490

> <i_epik_Tot_Q>
1

> <r_epik_Metal_State_Penalty>
  0.1490

> <b_epik_Metal_Only>
0

> <s_m_entry_id>
4972

> <s_canvas_Unique_SMILES_Stereo>
CN(C1)C(=O)CN([C@H]12)CCC[N@H+]2C

$$$$
Schrodinger_fragment_404
                    3D
 Structure written by MMmdl.
 31 32  0  0  1  0            999 V2000
    2.4443   -2.2697   -0.2158 C   0  0  2  0  0  0
    3.7379   -2.9515    0.3089 C   0  0  0  0  0  0
    4.9691   -2.1967    0.0482 N   0  0  0  0  0  0
    4.9739   -0.8620   -0.1463 C   0  0  0  0  0  0
    3.6258   -0.1241   -0.1893 C   0  0  0  0  0  0
    1.2364   -0.1338   -0.0661 C   0  0  0  0  0  0
    0.0155   -0.8630    0.4918 C   0  0  0  0  0  0
   -0.0393   -2.2799   -0.0799 C   0  0  0  0  0  0
    6.0125   -0.2173   -0.3134 O   0  0  0  0  0  0
    1.1442   -4.4051   -0.2832 C   0  0  0  0  0  0
    6.2192   -2.9601    0.0895 C   0  0  0  0  0  0
    2.4613   -2.2467   -1.3088 H   0  0  0  0  0  0
    3.6678   -3.1154    1.3853 H   0  0  0  0  0  0
    3.8470   -3.9322   -0.1538 H   0  0  0  0  0  0
    3.7203    0.8006    0.3819 H   0  0  0  0  0  0
    3.4786    0.1686   -1.2307 H   0  0  0  0  0  0
    1.1478   -0.0251   -1.1496 H   0  0  0  0  0  0
    1.2791    0.8738    0.3520 H   0  0  0  0  0  0
    0.0541   -0.8905    1.5817 H   0  0  0  0  0  0
   -0.8940   -0.3217    0.2286 H   0  0  0  0  0  0
   -0.8926   -2.8106    0.3442 H   0  0  0  0  0  0
   -0.1955   -2.2420   -1.1594 H   0  0  0  0  0  0
    0.2074   -4.8773    0.0141 H   0  0  0  0  0  0
    1.9414   -5.0270    0.1213 H   0  0  0  0  0  0
    1.2020   -4.4370   -1.3717 H   0  0  0  0  0  0
    6.9288   -2.5089    0.7850 H   0  0  0  0  0  0
    6.6826   -2.9839   -0.8978 H   0  0  0  0  0  0
    6.0649   -3.9907    0.4109 H   0  0  0  0  0  0
    2.4430   -0.8840    0.2942 N   0  0  0  0  0  0
    1.2166   -3.0105    0.2190 N   0  3  1  0  0  0
    1.2638   -3.0792    1.2245 H   0  0  0  0  0  0
  1  2  1  0  0  0
  1 12  1  0  0  0
  1 29  1  0  0  0
  1 30  1  0  0  0
  2  3  1  0  0  0
  2 13  1  0  0  0
  2 14  1  0  0  0
  3  4  1  0  0  0
  3 11  1  0  0  0
  4  5  1  0  0  0
  4  9  2  0  0  0
  5 15  1  0  0  0
  5 16  1  0  0  0
  5 29  1  0  0  0
  6  7  1  0  0  0
  6 17  1  0  0  0
  6 18  1  0  0  0
  6 29  1  0  0  0
  7  8  1  0  0  0
  7 19  1  0  0  0
  7 20  1  0  0  0
  8 21  1  0  0  0
  8 22  1  0  0  0
  8 30  1  0  0  0
 10 23  1  0  0  0
 10 24  1  0  0  0
 10 25  1  0  0  0
 10 30  1  0  0  0
 11 26  1  0  0  0
 11 27  1  0  0  0
 11 28  1  0  0  0
 30 31  1  0  0  0
M  CHG  1  30   1
M  END
> <s_m_entry_name>
Schrodinger_fragment_500

> <i_m_number_of_atoms>
32

> <r_m_molecular_weight>
185.27128

> <s_m_molecular_formula>
C9H19N3O1

> <r_epik_Ionization_Penalty>
  0.0054

> <r_epik_Ionization_Penalty_Charging>
  0.0032

> <r_epik_Ionization_Penalty_Neutral>
  0.0022

> <r_epik_State_Penalty>
  0.1490

> <i_epik_Tot_Q>
1

> <r_epik_Metal_State_Penalty>
  0.1490

> <b_epik_Metal_Only>
0

> <s_m_entry_id>
4973

> <s_canvas_Unique_SMILES_Stereo>
CN(C1)C(=O)CN([C@@H]12)CCC[N@H+]2C

$$$$
Schrodinger_fragment_405
                    3D
 Structure written by MMmdl.
 28 29  0  0  1  0            999 V2000
    2.4223   -2.2874    0.3103 C   0  0  1  0  0  0
    3.7093   -2.9907   -0.1945 C   0  0  0  0  0  0
    4.9298   -2.2430    0.1280 N   0  0  0  0  0  0
    4.9700   -0.9083   -0.0583 C   0  0  0  0  0  0
    3.6581   -0.2346   -0.4666 C   0  0  0  0  0  0
    1.2259   -0.1046   -0.0266 C   0  0  0  0  0  0
    0.0399   -0.8736    0.5737 C   0  0  0  0  0  0
   -0.0091   -2.3382    0.0919 C   0  0  0  0  0  0
    5.9857   -0.2297    0.1192 O   0  0  0  0  0  0
    6.1104   -3.0015    0.5481 C   0  0  0  0  0  0
    2.2821   -2.5651    1.3572 H   0  0  0  0  0  0
    3.7440   -4.0029    0.2103 H   0  0  0  0  0  0
    3.6819   -3.1023   -1.2801 H   0  0  0  0  0  0
    3.7322    0.8395   -0.2944 H   0  0  0  0  0  0
    3.5105   -0.3805   -1.5371 H   0  0  0  0  0  0
    1.1011   -0.0389   -1.1084 H   0  0  0  0  0  0
    1.2511    0.9188    0.3489 H   0  0  0  0  0  0
    0.1122   -0.8526    1.6623 H   0  0  0  0  0  0
   -0.8977   -0.3715    0.3314 H   0  0  0  0  0  0
   -0.3158   -2.9807    0.9195 H   0  0  0  0  0  0
   -0.7687   -2.4573   -0.6829 H   0  0  0  0  0  0
    6.3818   -2.7450    1.5730 H   0  0  0  0  0  0
    6.9646   -2.7760   -0.0925 H   0  0  0  0  0  0
    5.9516   -4.0793    0.5060 H   0  0  0  0  0  0
    2.5060   -0.7883    0.2883 N   0  3  1  0  0  0
    2.7155   -0.5469    1.2471 H   0  0  0  0  0  0
    1.2731   -2.8026   -0.4425 N   0  0  0  0  0  0
    1.3605   -2.5586   -1.4253 H   0  0  0  0  0  0
  1  2  1  0  0  0
  1 11  1  0  0  0
  1 25  1  0  0  0
  1 27  1  0  0  0
  2  3  1  0  0  0
  2 12  1  0  0  0
  2 13  1  0  0  0
  3  4  1  0  0  0
  3 10  1  0  0  0
  4  5  1  0  0  0
  4  9  2  0  0  0
  5 14  1  0  0  0
  5 15  1  0  0  0
  5 25  1  0  0  0
  6  7  1  0  0  0
  6 16  1  0  0  0
  6 17  1  0  0  0
  6 25  1  0  0  0
  7  8  1  0  0  0
  7 18  1  0  0  0
  7 19  1  0  0  0
  8 20  1  0  0  0
  8 21  1  0  0  0
  8 27  1  0  0  0
 10 22  1  0  0  0
 10 23  1  0  0  0
 10 24  1  0  0  0
 25 26  1  0  0  0
 27 28  1  0  0  0
M  CHG  1  25   1
M  END
> <s_m_entry_name>
Schrodinger_fragment_503

> <i_m_number_of_atoms>
29

> <r_m_molecular_weight>
171.24419

> <s_m_molecular_formula>
C8H17N3O1

> <r_epik_Ionization_Penalty>
  0.0014

> <r_epik_Ionization_Penalty_Charging>
  0.0014

> <r_epik_Ionization_Penalty_Neutral>
  0.0000

> <r_epik_State_Penalty>
  0.0000

> <i_epik_Tot_Q>
1

> <r_epik_Metal_State_Penalty>
  0.0000

> <b_epik_Metal_Only>
0

> <s_m_entry_id>
4974

> <s_canvas_Unique_SMILES_Stereo>
CN(C1)C(=O)C[N@H+]([C@H]12)CCCN2

$$$$
Schrodinger_fragment_406
                    3D
 Structure written by MMmdl.
 28 29  0  0  1  0            999 V2000
    2.4250   -2.2225   -0.2654 C   0  0  2  0  0  0
    3.6881   -3.0028    0.1539 C   0  0  0  0  0  0
    4.9299   -2.2232    0.0652 N   0  0  0  0  0  0
    4.9686   -0.8764   -0.0549 C   0  0  0  0  0  0
    3.6514   -0.0921   -0.1365 C   0  0  0  0  0  0
    1.2000   -0.1004    0.0671 C   0  0  0  0  0  0
   -0.0209   -0.9273    0.4922 C   0  0  0  0  0  0
    0.0095   -2.3022   -0.1856 C   0  0  0  0  0  0
    6.0319   -0.2511   -0.1077 O   0  0  0  0  0  0
    6.1675   -3.0038    0.1486 C   0  0  0  0  0  0
    2.3966   -2.1432   -1.3549 H   0  0  0  0  0  0
    3.5942   -3.3397    1.1880 H   0  0  0  0  0  0
    3.7748   -3.9019   -0.4582 H   0  0  0  0  0  0
    3.7430    0.8170    0.4582 H   0  0  0  0  0  0
    3.5230    0.2184   -1.1739 H   0  0  0  0  0  0
    1.1197    0.1466   -0.9925 H   0  0  0  0  0  0
    1.2213    0.8443    0.6112 H   0  0  0  0  0  0
   -0.0413   -1.0430    1.5769 H   0  0  0  0  0  0
   -0.9369   -0.3994    0.2237 H   0  0  0  0  0  0
   -0.8431   -2.9014    0.1388 H   0  0  0  0  0  0
   -0.0630   -2.2075   -1.2713 H   0  0  0  0  0  0
    6.8110   -2.6304    0.9470 H   0  0  0  0  0  0
    6.7220   -2.9426   -0.7890 H   0  0  0  0  0  0
    5.9775   -4.0582    0.3533 H   0  0  0  0  0  0
    2.4572   -0.8515    0.3070 N   0  3  1  0  0  0
    2.5500   -0.9647    1.3052 H   0  0  0  0  0  0
    1.2503   -2.9708    0.1915 N   0  0  0  0  0  0
    1.2720   -3.8975   -0.2285 H   0  0  0  0  0  0
  1  2  1  0  0  0
  1 11  1  0  0  0
  1 25  1  0  0  0
  1 27  1  0  0  0
  2  3  1  0  0  0
  2 12  1  0  0  0
  2 13  1  0  0  0
  3  4  1  0  0  0
  3 10  1  0  0  0
  4  5  1  0  0  0
  4  9  2  0  0  0
  5 14  1  0  0  0
  5 15  1  0  0  0
  5 25  1  0  0  0
  6  7  1  0  0  0
  6 16  1  0  0  0
  6 17  1  0  0  0
  6 25  1  0  0  0
  7  8  1  0  0  0
  7 18  1  0  0  0
  7 19  1  0  0  0
  8 20  1  0  0  0
  8 21  1  0  0  0
  8 27  1  0  0  0
 10 22  1  0  0  0
 10 23  1  0  0  0
 10 24  1  0  0  0
 25 26  1  0  0  0
 27 28  1  0  0  0
M  CHG  1  25   1
M  END
> <s_m_entry_name>
Schrodinger_fragment_504

> <i_m_number_of_atoms>
29

> <r_m_molecular_weight>
171.24419

> <s_m_molecular_formula>
C8H17N3O1

> <r_epik_Ionization_Penalty>
  0.0014

> <r_epik_Ionization_Penalty_Charging>
  0.0014

> <r_epik_Ionization_Penalty_Neutral>
  0.0000

> <r_epik_State_Penalty>
  0.0000

> <i_epik_Tot_Q>
1

> <r_epik_Metal_State_Penalty>
  0.0000

> <b_epik_Metal_Only>
0

> <s_m_entry_id>
4975

> <s_canvas_Unique_SMILES_Stereo>
CN(C1)C(=O)C[N@H+]([C@@H]12)CCCN2

$$$$
Schrodinger_fragment_407
                    3D
 Structure written by MMmdl.
 28 29  0  0  1  0            999 V2000
    2.4277   -2.2309    0.4002 C   0  0  1  0  0  0
    3.6882   -3.0026   -0.0411 C   0  0  0  0  0  0
    4.9299   -2.2238    0.0633 N   0  0  0  0  0  0
    4.9682   -0.8805    0.2220 C   0  0  0  0  0  0
    3.6499   -0.0995    0.3244 C   0  0  0  0  0  0
    1.2007   -0.1009    0.0927 C   0  0  0  0  0  0
   -0.0167   -0.9237   -0.3501 C   0  0  0  0  0  0
    0.0023   -2.2966    0.3321 C   0  0  0  0  0  0
    6.0312   -0.2564    0.2919 O   0  0  0  0  0  0
    6.1679   -3.0008   -0.0433 C   0  0  0  0  0  0
    2.4168   -2.1594    1.4904 H   0  0  0  0  0  0
    3.7743   -3.9134    0.5538 H   0  0  0  0  0  0
    3.5937   -3.3203   -1.0809 H   0  0  0  0  0  0
    3.5164    0.1775    1.3706 H   0  0  0  0  0  0
    3.7434    0.8284   -0.2404 H   0  0  0  0  0  0
    1.2244    0.8511   -0.4386 H   0  0  0  0  0  0
    1.1135    0.1323    1.1549 H   0  0  0  0  0  0
   -0.9334   -0.3931   -0.0893 H   0  0  0  0  0  0
   -0.0284   -1.0358   -1.4354 H   0  0  0  0  0  0
   -0.0754   -2.1913    1.4163 H   0  0  0  0  0  0
   -0.8537   -2.8923    0.0102 H   0  0  0  0  0  0
    6.8041   -2.6124   -0.8404 H   0  0  0  0  0  0
    5.9779   -4.0520   -0.2641 H   0  0  0  0  0  0
    6.7303   -2.9549    0.8906 H   0  0  0  0  0  0
    2.4600   -0.8477   -0.1494 N   0  3  2  0  0  0
    2.5723   -0.9257   -1.1492 H   0  0  0  0  0  0
    1.2398   -2.9844   -0.0225 N   0  0  0  0  0  0
    1.2679   -3.1923   -1.0171 H   0  0  0  0  0  0
  1  2  1  0  0  0
  1 11  1  0  0  0
  1 25  1  0  0  0
  1 27  1  0  0  0
  2  3  1  0  0  0
  2 12  1  0  0  0
  2 13  1  0  0  0
  3  4  1  0  0  0
  3 10  1  0  0  0
  4  5  1  0  0  0
  4  9  2  0  0  0
  5 14  1  0  0  0
  5 15  1  0  0  0
  5 25  1  0  0  0
  6  7  1  0  0  0
  6 16  1  0  0  0
  6 17  1  0  0  0
  6 25  1  0  0  0
  7  8  1  0  0  0
  7 18  1  0  0  0
  7 19  1  0  0  0
  8 20  1  0  0  0
  8 21  1  0  0  0
  8 27  1  0  0  0
 10 22  1  0  0  0
 10 23  1  0  0  0
 10 24  1  0  0  0
 25 26  1  0  0  0
 27 28  1  0  0  0
M  CHG  1  25   1
M  END
> <s_m_entry_name>
Schrodinger_fragment_505

> <i_m_number_of_atoms>
29

> <r_m_molecular_weight>
171.24419

> <s_m_molecular_formula>
C8H17N3O1

> <r_epik_Ionization_Penalty>
  0.0014

> <r_epik_Ionization_Penalty_Charging>
  0.0014

> <r_epik_Ionization_Penalty_Neutral>
  0.0000

> <r_epik_State_Penalty>
  0.0000

> <i_epik_Tot_Q>
1

> <r_epik_Metal_State_Penalty>
  0.0000

> <b_epik_Metal_Only>
0

> <s_m_entry_id>
4976

> <s_canvas_Unique_SMILES_Stereo>
CN(C1)C(=O)C[N@@H+]([C@H]12)CCCN2

$$$$
Schrodinger_fragment_408
                    3D
 Structure written by MMmdl.
 28 29  0  0  1  0            999 V2000
    2.4247   -2.2788   -0.1913 C   0  0  2  0  0  0
    3.7112   -3.0002    0.2880 C   0  0  0  0  0  0
    4.9301   -2.2359    0.0006 N   0  0  0  0  0  0
    4.9650   -0.9108    0.2467 C   0  0  0  0  0  0
    3.6492   -0.2601    0.6780 C   0  0  0  0  0  0
    1.2188   -0.1232    0.2466 C   0  0  0  0  0  0
    0.0326   -0.8630   -0.3924 C   0  0  0  0  0  0
    0.0034   -2.3584   -0.0118 C   0  0  0  0  0  0
    5.9795   -0.2221    0.1049 O   0  0  0  0  0  0
    6.1162   -2.9704   -0.4455 C   0  0  0  0  0  0
    2.2839   -2.5207   -1.2472 H   0  0  0  0  0  0
    3.6788   -3.1517    1.3690 H   0  0  0  0  0  0
    3.7522   -3.9958   -0.1553 H   0  0  0  0  0  0
    3.4955   -0.4576    1.7393 H   0  0  0  0  0  0
    3.7202    0.8211    0.5568 H   0  0  0  0  0  0
    1.2376    0.9207   -0.0675 H   0  0  0  0  0  0
    1.0965   -0.1240    1.3308 H   0  0  0  0  0  0
   -0.9062   -0.3881   -0.1049 H   0  0  0  0  0  0
    0.0915   -0.7670   -1.4777 H   0  0  0  0  0  0
   -0.7822   -2.5464    0.7221 H   0  0  0  0  0  0
   -0.2483   -2.9562   -0.8902 H   0  0  0  0  0  0
    6.4227   -2.6328   -1.4366 H   0  0  0  0  0  0
    5.9477   -4.0461   -0.4994 H   0  0  0  0  0  0
    6.9508   -2.8070    0.2382 H   0  0  0  0  0  0
    2.5027   -0.7821   -0.1066 N   0  3  2  0  0  0
    2.7099   -0.4953   -1.0530 H   0  0  0  0  0  0
    1.2777   -2.8079    0.5508 N   0  0  0  0  0  0
    1.3083   -3.8246    0.5574 H   0  0  0  0  0  0
  1  2  1  0  0  0
  1 11  1  0  0  0
  1 25  1  0  0  0
  1 27  1  0  0  0
  2  3  1  0  0  0
  2 12  1  0  0  0
  2 13  1  0  0  0
  3  4  1  0  0  0
  3 10  1  0  0  0
  4  5  1  0  0  0
  4  9  2  0  0  0
  5 14  1  0  0  0
  5 15  1  0  0  0
  5 25  1  0  0  0
  6  7  1  0  0  0
  6 16  1  0  0  0
  6 17  1  0  0  0
  6 25  1  0  0  0
  7  8  1  0  0  0
  7 18  1  0  0  0
  7 19  1  0  0  0
  8 20  1  0  0  0
  8 21  1  0  0  0
  8 27  1  0  0  0
 10 22  1  0  0  0
 10 23  1  0  0  0
 10 24  1  0  0  0
 25 26  1  0  0  0
 27 28  1  0  0  0
M  CHG  1  25   1
M  END
> <s_m_entry_name>
Schrodinger_fragment_506

> <i_m_number_of_atoms>
29

> <r_m_molecular_weight>
171.24419

> <s_m_molecular_formula>
C8H17N3O1

> <r_epik_Ionization_Penalty>
  0.0014

> <r_epik_Ionization_Penalty_Charging>
  0.0014

> <r_epik_Ionization_Penalty_Neutral>
  0.0000

> <r_epik_State_Penalty>
  0.0000

> <i_epik_Tot_Q>
1

> <r_epik_Metal_State_Penalty>
  0.0000

> <b_epik_Metal_Only>
0

> <s_m_entry_id>
4977

> <s_canvas_Unique_SMILES_Stereo>
CN(C1)C(=O)C[N@@H+]([C@@H]12)CCCN2

$$$$
Schrodinger_fragment_409
                    3D
 Structure written by MMmdl.
 15 16  0  0  1  0            999 V2000
    0.0485    3.5506    0.0315 C   0  0  0  0  0  0
    0.0758    2.1454    0.0314 C   0  0  0  0  0  0
    1.2268    1.4383    0.0276 N   0  0  0  0  0  0
    2.4031    2.1132    0.0236 C   0  0  0  0  0  0
    2.4859    3.5386    0.0233 C   0  0  0  0  0  0
    1.2702    4.2545    0.0273 C   0  0  0  0  0  0
    3.6579    1.4594    0.0194 C   0  0  0  0  0  0
    4.8287    2.1149    0.0155 N   0  0  0  0  0  0
    4.7827    3.4495    0.0156 C   0  0  0  0  0  0
    3.6756    4.1812    0.0193 N   0  0  0  0  0  0
    3.8024    0.1036    0.0190 O   0  5  0  0  0  0
   -0.8974    4.0751    0.0346 H   0  0  0  0  0  0
   -0.8441    1.5776    0.0345 H   0  0  0  0  0  0
    1.2783    5.3348    0.0273 H   0  0  0  0  0  0
    5.7249    3.9791    0.0124 H   0  0  0  0  0  0
  1  2  2  0  0  0
  1  6  1  0  0  0
  1 12  1  0  0  0
  2  3  1  0  0  0
  2 13  1  0  0  0
  3  4  2  0  0  0
  4  5  1  0  0  0
  4  7  1  0  0  0
  5  6  2  0  0  0
  5 10  1  0  0  0
  6 14  1  0  0  0
  7  8  2  0  0  0
  7 11  1  0  0  0
  8  9  1  0  0  0
  9 10  2  0  0  0
  9 15  1  0  0  0
M  CHG  1  11  -1
M  END
> <s_m_entry_name>
Schrodinger_fragment_507

> <i_m_number_of_atoms>
16

> <r_m_molecular_weight>
147.1374

> <s_m_molecular_formula>
C7H5N3O1

> <r_epik_Ionization_Penalty>
  0.4795

> <r_epik_Ionization_Penalty_Charging>
  0.0000

> <r_epik_Ionization_Penalty_Neutral>
  0.4795

> <r_epik_State_Penalty>
  0.4182

> <i_epik_Tot_Q>
-1

> <r_epik_Metal_State_Penalty>
  0.2775

> <b_epik_Metal_Only>
0

> <s_m_entry_id>
4978

> <s_canvas_Unique_SMILES_Stereo>
n1cccc(c12)ncnc2[O-]

$$$$
Schrodinger_fragment_409_a
                    3D
 Structure written by MMmdl.
 16 17  0  0  1  0            999 V2000
    0.0519    3.5439    0.0314 C   0  0  0  0  0  0
    0.0880    2.1410    0.0314 C   0  0  0  0  0  0
    1.2365    1.4355    0.0275 N   0  0  0  0  0  0
    2.4054    2.1189    0.0236 C   0  0  0  0  0  0
    2.4709    3.5356    0.0233 C   0  0  0  0  0  0
    1.2619    4.2558    0.0274 C   0  0  0  0  0  0
    3.7093    1.3583    0.0193 C   0  0  0  0  0  0
    4.8146    2.1195    0.0155 N   0  0  0  0  0  0
    4.7968    3.5168    0.0155 C   0  0  0  0  0  0
    3.7000    4.2202    0.0192 N   0  0  0  0  0  0
    3.7523    0.1212    0.0192 O   0  0  0  0  0  0
   -0.8947    4.0659    0.0346 H   0  0  0  0  0  0
   -0.8284    1.5692    0.0345 H   0  0  0  0  0  0
    1.2591    5.3366    0.0273 H   0  0  0  0  0  0
    5.7045    1.6495    0.0126 H   0  0  0  0  0  0
    5.7908    3.9682    0.0122 H   0  0  0  0  0  0
  1  2  2  0  0  0
  1  6  1  0  0  0
  1 12  1  0  0  0
  2  3  1  0  0  0
  2 13  1  0  0  0
  3  4  2  0  0  0
  4  5  1  0  0  0
  4  7  1  0  0  0
  5  6  2  0  0  0
  5 10  1  0  0  0
  6 14  1  0  0  0
  7  8  1  0  0  0
  7 11  2  0  0  0
  8  9  1  0  0  0
  8 15  1  0  0  0
  9 10  2  0  0  0
  9 16  1  0  0  0
M  END
> <s_m_entry_name>
Schrodinger_fragment_507

> <i_m_number_of_atoms>
16

> <r_m_molecular_weight>
147.1374

> <s_m_molecular_formula>
C7H5N3O1

> <r_epik_Ionization_Penalty>
  0.5169

> <r_epik_Ionization_Penalty_Charging>
  0.5169

> <r_epik_Ionization_Penalty_Neutral>
  0.0000

> <r_epik_State_Penalty>
  0.6144

> <i_epik_Tot_Q>
0

> <r_epik_Metal_State_Penalty>
  0.7939

> <b_epik_Metal_Only>
0

> <s_m_entry_id>
4979

> <s_canvas_Unique_SMILES_Stereo>
n1cccc(c12)nc[nH]c2=O

$$$$
Schrodinger_fragment_409_b
                    3D
 Structure written by MMmdl.
 16 17  0  0  1  0            999 V2000
    0.0390    3.5622    0.0315 C   0  0  0  0  0  0
    0.0839    2.1576    0.0314 C   0  0  0  0  0  0
    1.2361    1.4542    0.0275 N   0  0  0  0  0  0
    2.4026    2.1430    0.0236 C   0  0  0  0  0  0
    2.4491    3.5558    0.0234 C   0  0  0  0  0  0
    1.2449    4.2829    0.0274 C   0  0  0  0  0  0
    3.7255    1.3907    0.0192 C   0  0  0  0  0  0
    4.9210    2.1287    0.0152 N   0  0  0  0  0  0
    4.8477    3.4284    0.0154 C   0  0  0  0  0  0
    3.6585    4.1423    0.0193 N   0  0  0  0  0  0
    3.7135    0.1581    0.0193 O   0  0  0  0  0  0
   -0.9105    4.0783    0.0346 H   0  0  0  0  0  0
   -0.8298    1.5817    0.0345 H   0  0  0  0  0  0
    1.2393    5.3634    0.0274 H   0  0  0  0  0  0
    5.7462    4.0497    0.0123 H   0  0  0  0  0  0
    3.6650    5.1606    0.0193 H   0  0  0  0  0  0
  1  2  2  0  0  0
  1  6  1  0  0  0
  1 12  1  0  0  0
  2  3  1  0  0  0
  2 13  1  0  0  0
  3  4  2  0  0  0
  4  5  1  0  0  0
  4  7  1  0  0  0
  5  6  2  0  0  0
  5 10  1  0  0  0
  6 14  1  0  0  0
  7  8  1  0  0  0
  7 11  2  0  0  0
  8  9  2  0  0  0
  9 10  1  0  0  0
  9 15  1  0  0  0
 10 16  1  0  0  0
M  END
> <s_m_entry_name>
Schrodinger_fragment_507

> <i_m_number_of_atoms>
16

> <r_m_molecular_weight>
147.1374

> <s_m_molecular_formula>
C7H5N3O1

> <r_epik_Ionization_Penalty>
  0.8577

> <r_epik_Ionization_Penalty_Charging>
  0.8577

> <r_epik_Ionization_Penalty_Neutral>
  0.0000

> <r_epik_State_Penalty>
  1.1171

> <i_epik_Tot_Q>
0

> <r_epik_Metal_State_Penalty>
  1.2966

> <b_epik_Metal_Only>
0

> <s_m_entry_id>
4980

> <s_canvas_Unique_SMILES_Stereo>
n1cccc(c12)[nH]cnc2=O

$$$$
Schrodinger_fragment_410
                    3D
 Structure written by MMmdl.
 19 20  0  0  1  0            999 V2000
    0.0694   -0.8088    0.0276 C   0  0  0  0  0  0
    0.0932   -2.2116    0.0309 C   0  0  0  0  0  0
    1.2362   -2.9259    0.0303 N   0  0  0  0  0  0
    2.4133   -2.2537    0.0263 C   0  0  0  0  0  0
    2.4883   -0.8394    0.0228 C   0  0  0  0  0  0
    1.2857   -0.1081    0.0234 C   0  0  0  0  0  0
    3.7099   -3.0286    0.0255 C   0  0  0  0  0  0
    4.8426   -2.2832    0.0214 N   0  0  0  0  0  0
    4.8129   -0.8742    0.0181 C   0  0  0  0  0  0
    3.7198   -0.1660    0.0186 N   0  0  0  0  0  0
    3.7140   -4.2695    0.0285 O   0  0  0  0  0  0
    6.1595   -2.9342    0.0202 C   0  0  0  0  0  0
   -0.8724   -0.2783    0.0282 H   0  0  0  0  0  0
   -0.8279   -2.7757    0.0342 H   0  0  0  0  0  0
    1.2926    0.9727    0.0208 H   0  0  0  0  0  0
    5.7967   -0.4014    0.0149 H   0  0  0  0  0  0
    6.9967   -2.2345    0.0167 H   0  0  0  0  0  0
    6.2675   -3.5701   -0.8599 H   0  0  0  0  0  0
    6.2713   -3.5656    0.9030 H   0  0  0  0  0  0
  1  2  2  0  0  0
  1  6  1  0  0  0
  1 13  1  0  0  0
  2  3  1  0  0  0
  2 14  1  0  0  0
  3  4  2  0  0  0
  4  5  1  0  0  0
  4  7  1  0  0  0
  5  6  2  0  0  0
  5 10  1  0  0  0
  6 15  1  0  0  0
  7  8  1  0  0  0
  7 11  2  0  0  0
  8  9  1  0  0  0
  8 12  1  0  0  0
  9 10  2  0  0  0
  9 16  1  0  0  0
 12 17  1  0  0  0
 12 18  1  0  0  0
 12 19  1  0  0  0
M  END
> <s_m_entry_name>
Schrodinger_fragment_509

> <i_m_number_of_atoms>
19

> <r_m_molecular_weight>
161.16449

> <s_m_molecular_formula>
C8H7N3O1

> <r_epik_Ionization_Penalty>
  0.0000

> <r_epik_Ionization_Penalty_Charging>
  0.0000

> <r_epik_Ionization_Penalty_Neutral>
  0.0000

> <r_epik_State_Penalty>
  0.0000

> <i_epik_Tot_Q>
0

> <r_epik_Metal_State_Penalty>
  0.0000

> <b_epik_Metal_Only>
0

> <s_m_entry_id>
4981

> <s_canvas_Unique_SMILES_Stereo>
O=c1n(C)cnc(c12)cccn2

$$$$
Schrodinger_fragment_411
                    3D
 Structure written by MMmdl.
 16 17  0  0  1  0            999 V2000
    1.2841    2.0783    0.0313 N   0  0  0  0  0  0
    1.3523    0.6904    0.0305 C   0  0  0  0  0  0
    2.4801    0.0509    0.0262 N   0  0  0  0  0  0
    3.6791    0.7815    0.0222 C   0  0  0  0  0  0
    3.6748    2.1900    0.0228 C   0  0  0  0  0  0
    2.3529    2.8913    0.0278 C   0  0  0  0  0  0
    4.8210    0.0607    0.0178 N   0  0  0  0  0  0
    6.0005    0.7242    0.0139 C   0  0  0  0  0  0
    6.0909    2.1268    0.0141 C   0  0  0  0  0  0
    4.9028    2.8812    0.0187 C   0  0  0  0  0  0
    0.1875    0.2776    0.0345 O   0  5  0  0  0  0
    2.2606    4.1200    0.0286 O   0  0  0  0  0  0
    0.3707    2.5118    0.0348 H   0  0  0  0  0  0
    6.8940    0.1175    0.0104 H   0  0  0  0  0  0
    7.0565    2.6135    0.0108 H   0  0  0  0  0  0
    4.9368    3.9612    0.0190 H   0  0  0  0  0  0
  1  2  1  0  0  0
  1  6  1  0  0  0
  1 13  1  0  0  0
  2  3  2  0  0  0
  2 11  1  0  0  0
  3  4  1  0  0  0
  4  5  2  0  0  0
  4  7  1  0  0  0
  5  6  1  0  0  0
  5 10  1  0  0  0
  6 12  2  0  0  0
  7  8  2  0  0  0
  8  9  1  0  0  0
  8 14  1  0  0  0
  9 10  2  0  0  0
  9 15  1  0  0  0
 10 16  1  0  0  0
M  CHG  1  11  -1
M  END
> <s_m_entry_name>
Schrodinger_fragment_511

> <i_m_number_of_atoms>
17

> <r_m_molecular_weight>
163.1368

> <s_m_molecular_formula>
C7H5N3O2

> <r_epik_Ionization_Penalty>
  0.0891

> <r_epik_Ionization_Penalty_Charging>
  0.0000

> <r_epik_Ionization_Penalty_Neutral>
  0.0891

> <r_epik_State_Penalty>
  0.0952

> <i_epik_Tot_Q>
-1

> <r_epik_Metal_State_Penalty>
  0.2031

> <b_epik_Metal_Only>
0

> <s_m_entry_id>
4982

> <s_canvas_Unique_SMILES_Stereo>
c1ccnc(c12)nc([O-])[nH]c2=O

$$$$
Schrodinger_fragment_411_a
                    3D
 Structure written by MMmdl.
 17 18  0  0  1  0            999 V2000
    1.2752    2.0852    0.0313 N   0  0  0  0  0  0
    1.2574    0.7374    0.0309 C   0  0  0  0  0  0
    2.4483    0.1104    0.0263 N   0  0  0  0  0  0
    3.6976    0.7636    0.0221 C   0  0  0  0  0  0
    3.6835    2.1713    0.0227 C   0  0  0  0  0  0
    2.3596    2.8771    0.0278 C   0  0  0  0  0  0
    4.8502    0.0534    0.0177 N   0  0  0  0  0  0
    6.0243    0.7239    0.0138 C   0  0  0  0  0  0
    6.1017    2.1262    0.0141 C   0  0  0  0  0  0
    4.9071    2.8696    0.0186 C   0  0  0  0  0  0
    0.1979    0.1072    0.0344 O   0  0  0  0  0  0
    2.2836    4.1097    0.0285 O   0  0  0  0  0  0
    0.3801    2.5484    0.0347 H   0  0  0  0  0  0
    2.4493   -0.8991    0.0259 H   0  0  0  0  0  0
    6.9227    0.1243    0.0103 H   0  0  0  0  0  0
    7.0630    2.6216    0.0108 H   0  0  0  0  0  0
    4.9353    3.9500    0.0190 H   0  0  0  0  0  0
  1  2  1  0  0  0
  1  6  1  0  0  0
  1 13  1  0  0  0
  2  3  1  0  0  0
  2 11  2  0  0  0
  3  4  1  0  0  0
  3 14  1  0  0  0
  4  5  1  0  0  0
  4  7  2  0  0  0
  5  6  1  0  0  0
  5 10  2  0  0  0
  6 12  2  0  0  0
  7  8  1  0  0  0
  8  9  2  0  0  0
  8 15  1  0  0  0
  9 10  1  0  0  0
  9 16  1  0  0  0
 10 17  1  0  0  0
M  END
> <s_m_entry_name>
Schrodinger_fragment_511

> <i_m_number_of_atoms>
17

> <r_m_molecular_weight>
163.1368

> <s_m_molecular_formula>
C7H5N3O2

> <r_epik_Ionization_Penalty>
  1.2092

> <r_epik_Ionization_Penalty_Charging>
  1.2091

> <r_epik_Ionization_Penalty_Neutral>
  0.0000

> <r_epik_State_Penalty>
  1.1727

> <i_epik_Tot_Q>
0

> <r_epik_Metal_State_Penalty>
  1.3696

> <b_epik_Metal_Only>
0

> <s_m_entry_id>
4983

> <s_canvas_Unique_SMILES_Stereo>
c1ccnc(c12)[nH]c(=O)[nH]c2=O

$$$$
Schrodinger_fragment_411_b
                    3D
 Structure written by MMmdl.
 16 17  0  0  1  0            999 V2000
    1.2483    2.0908    0.0314 N   0  5  0  0  0  0
    1.2750    0.7325    0.0308 C   0  0  0  0  0  0
    2.4524    0.0953    0.0263 N   0  0  0  0  0  0
    3.6968    0.7558    0.0221 C   0  0  0  0  0  0
    3.6718    2.1670    0.0228 C   0  0  0  0  0  0
    2.3498    2.8873    0.0278 C   0  0  0  0  0  0
    4.8522    0.0486    0.0177 N   0  0  0  0  0  0
    6.0234    0.7223    0.0138 C   0  0  0  0  0  0
    6.0969    2.1238    0.0141 C   0  0  0  0  0  0
    4.8995    2.8626    0.0187 C   0  0  0  0  0  0
    0.2509    0.0482    0.0342 O   0  0  0  0  0  0
    2.3247    4.1215    0.0284 O   0  0  0  0  0  0
    2.4602   -0.9149    0.0259 H   0  0  0  0  0  0
    6.9234    0.1253    0.0103 H   0  0  0  0  0  0
    7.0565    2.6225    0.0108 H   0  0  0  0  0  0
    4.9278    3.9426    0.0190 H   0  0  0  0  0  0
  1  2  1  0  0  0
  1  6  1  0  0  0
  2  3  1  0  0  0
  2 11  2  0  0  0
  3  4  1  0  0  0
  3 13  1  0  0  0
  4  5  1  0  0  0
  4  7  2  0  0  0
  5  6  1  0  0  0
  5 10  2  0  0  0
  6 12  2  0  0  0
  7  8  1  0  0  0
  8  9  2  0  0  0
  8 14  1  0  0  0
  9 10  1  0  0  0
  9 15  1  0  0  0
 10 16  1  0  0  0
M  CHG  1   1  -1
M  END
> <s_m_entry_name>
Schrodinger_fragment_511

> <i_m_number_of_atoms>
17

> <r_m_molecular_weight>
163.1368

> <s_m_molecular_formula>
C7H5N3O2

> <r_epik_Ionization_Penalty>
  1.5882

> <r_epik_Ionization_Penalty_Charging>
  0.0069

> <r_epik_Ionization_Penalty_Neutral>
  1.5813

> <r_epik_State_Penalty>
  2.7115

> <i_epik_Tot_Q>
-1

> <r_epik_Metal_State_Penalty>
  1.3349

> <b_epik_Metal_Only>
0

> <s_m_entry_id>
4984

> <s_canvas_Unique_SMILES_Stereo>
c1ccnc(c12)[nH]c(=O)[n-]c2=O

$$$$
Schrodinger_fragment_411_c
                    3D
 Structure written by MMmdl.
 15 16  0  0  1  0            999 V2000
    1.2894    2.0959    0.0313 N   0  0  0  0  0  0
    1.3981    0.7950    0.0304 C   0  0  0  0  0  0
    2.4963    0.0912    0.0262 N   0  0  0  0  0  0
    3.6632    0.7701    0.0223 C   0  0  0  0  0  0
    3.6646    2.1580    0.0228 C   0  0  0  0  0  0
    2.4232    2.7959    0.0275 C   0  0  0  0  0  0
    4.8057    0.0608    0.0179 N   0  0  0  0  0  0
    5.9818    0.7261    0.0139 C   0  0  0  0  0  0
    6.0760    2.1246    0.0141 C   0  0  0  0  0  0
    4.8863    2.8664    0.0187 C   0  0  0  0  0  0
    0.2582    0.1220    0.0342 O   0  5  0  0  0  0
    2.2452    4.1411    0.0287 O   0  5  0  0  0  0
    6.8766    0.1204    0.0105 H   0  0  0  0  0  0
    7.0437    2.6133    0.0109 H   0  0  0  0  0  0
    4.9088    3.9472    0.0191 H   0  0  0  0  0  0
  1  2  1  0  0  0
  1  6  2  0  0  0
  2  3  2  0  0  0
  2 11  1  0  0  0
  3  4  1  0  0  0
  4  5  1  0  0  0
  4  7  2  0  0  0
  5  6  1  0  0  0
  5 10  2  0  0  0
  6 12  1  0  0  0
  7  8  1  0  0  0
  8  9  2  0  0  0
  8 13  1  0  0  0
  9 10  1  0  0  0
  9 14  1  0  0  0
 10 15  1  0  0  0
M  CHG  2  11  -1  12  -1
M  END
> <s_m_entry_name>
Schrodinger_fragment_511

> <i_m_number_of_atoms>
17

> <r_m_molecular_weight>
163.1368

> <s_m_molecular_formula>
C7H5N3O2

> <r_epik_Ionization_Penalty>
 12.1638

> <r_epik_Ionization_Penalty_Charging>
  0.0109

> <r_epik_Ionization_Penalty_Neutral>
 12.1529

> <r_epik_State_Penalty>
  5.3495

> <i_epik_Tot_Q>
-2

> <r_epik_Metal_State_Penalty>
  1.4536

> <b_epik_Metal_Only>
1

> <s_m_entry_id>
4985

> <s_canvas_Unique_SMILES_Stereo>
c1ccnc(c12)nc([O-])nc2[O-]

$$$$
Schrodinger_fragment_412
                    3D
 Structure written by MMmdl.
 19 20  0  0  1  0            999 V2000
    1.4658   -2.2235    0.0303 N   0  0  0  0  0  0
    1.5459   -3.6514    0.0301 C   0  0  0  0  0  0
    2.6769   -4.2847    0.0264 N   0  0  0  0  0  0
    3.8777   -3.5718    0.0225 C   0  0  0  0  0  0
    3.8903   -2.1689    0.0222 C   0  0  0  0  0  0
    2.5824   -1.4436    0.0264 C   0  0  0  0  0  0
    5.0083   -4.3096    0.0190 N   0  0  0  0  0  0
    6.1979   -3.6654    0.0151 C   0  0  0  0  0  0
    6.3075   -2.2648    0.0145 C   0  0  0  0  0  0
    5.1291   -1.4957    0.0181 C   0  0  0  0  0  0
    0.4160   -4.1647    0.0336 O   0  5  0  0  0  0
    2.5670   -0.2076    0.0261 O   0  0  0  0  0  0
    0.1390   -1.5558    0.0351 C   0  0  0  0  0  0
    7.0823   -4.2854    0.0124 H   0  0  0  0  0  0
    7.2794   -1.7907    0.0113 H   0  0  0  0  0  0
    5.1807   -0.4163    0.0178 H   0  0  0  0  0  0
    0.1763   -0.4659    0.0355 H   0  0  0  0  0  0
   -0.4309   -1.8404    0.9210 H   0  0  0  0  0  0
   -0.4370   -1.8397   -0.8470 H   0  0  0  0  0  0
  1  2  1  0  0  0
  1  6  1  0  0  0
  1 13  1  0  0  0
  2  3  2  0  0  0
  2 11  1  0  0  0
  3  4  1  0  0  0
  4  5  2  0  0  0
  4  7  1  0  0  0
  5  6  1  0  0  0
  5 10  1  0  0  0
  6 12  2  0  0  0
  7  8  2  0  0  0
  8  9  1  0  0  0
  8 14  1  0  0  0
  9 10  2  0  0  0
  9 15  1  0  0  0
 10 16  1  0  0  0
 13 17  1  0  0  0
 13 18  1  0  0  0
 13 19  1  0  0  0
M  CHG  1  11  -1
M  END
> <s_m_entry_name>
Schrodinger_fragment_513

> <i_m_number_of_atoms>
20

> <r_m_molecular_weight>
177.16389

> <s_m_molecular_formula>
C8H7N3O2

> <r_epik_Ionization_Penalty>
  0.1481

> <r_epik_Ionization_Penalty_Charging>
  0.0000

> <r_epik_Ionization_Penalty_Neutral>
  0.1481

> <r_epik_State_Penalty>
  0.1481

> <i_epik_Tot_Q>
-1

> <r_epik_Metal_State_Penalty>
  0.1184

> <b_epik_Metal_Only>
0

> <s_m_entry_id>
4986

> <s_canvas_Unique_SMILES_Stereo>
O=c1n(C)c([O-])nc(c12)nccc2

$$$$
Schrodinger_fragment_412_a
                    3D
 Structure written by MMmdl.
 20 21  0  0  1  0            999 V2000
    1.4597   -2.2242    0.0304 N   0  0  0  0  0  0
    1.4585   -3.5914    0.0305 C   0  0  0  0  0  0
    2.6446   -4.2234    0.0266 N   0  0  0  0  0  0
    3.8967   -3.5908    0.0225 C   0  0  0  0  0  0
    3.8997   -2.1873    0.0222 C   0  0  0  0  0  0
    2.5876   -1.4594    0.0265 C   0  0  0  0  0  0
    5.0377   -4.3184    0.0189 N   0  0  0  0  0  0
    6.2221   -3.6666    0.0150 C   0  0  0  0  0  0
    6.3189   -2.2660    0.0144 C   0  0  0  0  0  0
    5.1342   -1.5070    0.0181 C   0  0  0  0  0  0
    0.4163   -4.2572    0.0339 O   0  0  0  0  0  0
    2.5805   -0.2209    0.0262 O   0  0  0  0  0  0
    0.1414   -1.5601    0.0351 C   0  0  0  0  0  0
    2.6337   -5.2322    0.0267 H   0  0  0  0  0  0
    7.1115   -4.2795    0.0122 H   0  0  0  0  0  0
    7.2868   -1.7837    0.0113 H   0  0  0  0  0  0
    5.1801   -0.4272    0.0178 H   0  0  0  0  0  0
    0.1787   -0.4701    0.0354 H   0  0  0  0  0  0
   -0.4287   -1.8524    0.9185 H   0  0  0  0  0  0
   -0.4346   -1.8518   -0.8448 H   0  0  0  0  0  0
  1  2  1  0  0  0
  1  6  1  0  0  0
  1 13  1  0  0  0
  2  3  1  0  0  0
  2 11  2  0  0  0
  3  4  1  0  0  0
  3 14  1  0  0  0
  4  5  2  0  0  0
  4  7  1  0  0  0
  5  6  1  0  0  0
  5 10  1  0  0  0
  6 12  2  0  0  0
  7  8  2  0  0  0
  8  9  1  0  0  0
  8 15  1  0  0  0
  9 10  2  0  0  0
  9 16  1  0  0  0
 10 17  1  0  0  0
 13 18  1  0  0  0
 13 19  1  0  0  0
 13 20  1  0  0  0
M  END
> <s_m_entry_name>
Schrodinger_fragment_513

> <i_m_number_of_atoms>
20

> <r_m_molecular_weight>
177.16389

> <s_m_molecular_formula>
C8H7N3O2

> <r_epik_Ionization_Penalty>
  0.8941

> <r_epik_Ionization_Penalty_Charging>
  0.8941

> <r_epik_Ionization_Penalty_Neutral>
  0.0000

> <r_epik_State_Penalty>
  0.8941

> <i_epik_Tot_Q>
0

> <r_epik_Metal_State_Penalty>
  1.0123

> <b_epik_Metal_Only>
0

> <s_m_entry_id>
4987

> <s_canvas_Unique_SMILES_Stereo>
O=c1n(C)c(=O)[nH]c(c12)nccc2

$$$$
Schrodinger_fragment_413
                    3D
 Structure written by MMmdl.
 23 24  0  0  1  0            999 V2000
    1.4580   -2.2274   -0.0138 N   0  0  0  0  0  0
    1.4391   -3.5943    0.0036 C   0  0  0  0  0  0
    2.6256   -4.2686   -0.0265 N   0  0  0  0  0  0
    3.8874   -3.6080    0.0392 C   0  0  0  0  0  0
    3.8909   -2.2037    0.0387 C   0  0  0  0  0  0
    2.5878   -1.4742   -0.0262 C   0  0  0  0  0  0
    5.0485   -4.3132    0.1029 N   0  0  0  0  0  0
    6.2249   -3.6551    0.1626 C   0  0  0  0  0  0
    6.3094   -2.2561    0.1634 C   0  0  0  0  0  0
    5.1186   -1.5130    0.1004 C   0  0  0  0  0  0
    0.3612   -4.2077    0.0418 O   0  0  0  0  0  0
    2.5892   -0.2367   -0.0716 O   0  0  0  0  0  0
    0.1481   -1.5413   -0.0234 C   0  0  0  0  0  0
    2.6295   -5.7419   -0.0726 C   0  0  0  0  0  0
    7.1176   -4.2613    0.2108 H   0  0  0  0  0  0
    7.2709   -1.7636    0.2123 H   0  0  0  0  0  0
    5.1560   -0.4327    0.1013 H   0  0  0  0  0  0
    0.1975   -0.4519   -0.0419 H   0  0  0  0  0  0
   -0.4284   -1.8085    0.8640 H   0  0  0  0  0  0
   -0.4314   -1.8391   -0.8991 H   0  0  0  0  0  0
    3.3765   -6.1064   -0.7787 H   0  0  0  0  0  0
    1.6833   -6.1846   -0.3863 H   0  0  0  0  0  0
    2.8739   -6.1433    0.9114 H   0  0  0  0  0  0
  1  2  1  0  0  0
  1  6  1  0  0  0
  1 13  1  0  0  0
  2  3  1  0  0  0
  2 11  2  0  0  0
  3  4  1  0  0  0
  3 14  1  0  0  0
  4  5  2  0  0  0
  4  7  1  0  0  0
  5  6  1  0  0  0
  5 10  1  0  0  0
  6 12  2  0  0  0
  7  8  2  0  0  0
  8  9  1  0  0  0
  8 15  1  0  0  0
  9 10  2  0  0  0
  9 16  1  0  0  0
 10 17  1  0  0  0
 13 18  1  0  0  0
 13 19  1  0  0  0
 13 20  1  0  0  0
 14 21  1  0  0  0
 14 22  1  0  0  0
 14 23  1  0  0  0
M  END
> <s_m_entry_name>
Schrodinger_fragment_515

> <i_m_number_of_atoms>
23

> <r_m_molecular_weight>
191.19098

> <s_m_molecular_formula>
C9H9N3O2

> <r_epik_Ionization_Penalty>
  0.0000

> <r_epik_Ionization_Penalty_Charging>
  0.0000

> <r_epik_Ionization_Penalty_Neutral>
  0.0000

> <r_epik_State_Penalty>
  0.0000

> <i_epik_Tot_Q>
0

> <r_epik_Metal_State_Penalty>
  0.0000

> <b_epik_Metal_Only>
0

> <s_m_entry_id>
4988

> <s_canvas_Unique_SMILES_Stereo>
O=c1n(C)c(=O)n(C)c(c12)nccc2

$$$$
Schrodinger_fragment_414
                    3D
 Structure written by MMmdl.
 20 21  0  0  1  0            999 V2000
    1.4902   -2.2811    0.0304 N   0  0  0  0  0  0
    1.4560   -3.6253    0.0324 C   0  0  0  0  0  0
    2.6443   -4.2942    0.0294 N   0  0  0  0  0  0
    3.9080   -3.6159    0.0243 C   0  0  0  0  0  0
    3.8918   -2.2058    0.0224 C   0  0  0  0  0  0
    2.5742   -1.4985    0.0257 C   0  0  0  0  0  0
    5.0847   -4.2978    0.0214 N   0  0  0  0  0  0
    6.2506   -3.6182    0.0167 C   0  0  0  0  0  0
    6.3122   -2.2178    0.0146 C   0  0  0  0  0  0
    5.1080   -1.4940    0.0175 C   0  0  0  0  0  0
    0.3649   -4.2072    0.0368 O   0  0  0  0  0  0
    2.5012   -0.2661    0.0242 O   0  0  0  0  0  0
    2.5979   -5.7659    0.0315 C   0  0  0  0  0  0
    0.5988   -1.8123    0.0327 H   0  0  0  0  0  0
    7.1548   -4.2089    0.0146 H   0  0  0  0  0  0
    7.2668   -1.7098    0.0107 H   0  0  0  0  0  0
    5.1242   -0.4133    0.0159 H   0  0  0  0  0  0
    3.5750   -6.2465    0.0288 H   0  0  0  0  0  0
    2.0655   -6.1305   -0.8483 H   0  0  0  0  0  0
    2.0714   -6.1281    0.9158 H   0  0  0  0  0  0
  1  2  1  0  0  0
  1  6  1  0  0  0
  1 14  1  0  0  0
  2  3  1  0  0  0
  2 11  2  0  0  0
  3  4  1  0  0  0
  3 13  1  0  0  0
  4  5  1  0  0  0
  4  7  2  0  0  0
  5  6  1  0  0  0
  5 10  2  0  0  0
  6 12  2  0  0  0
  7  8  1  0  0  0
  8  9  2  0  0  0
  8 15  1  0  0  0
  9 10  1  0  0  0
  9 16  1  0  0  0
 10 17  1  0  0  0
 13 18  1  0  0  0
 13 19  1  0  0  0
 13 20  1  0  0  0
M  END
> <s_m_entry_name>
Schrodinger_fragment_517

> <i_m_number_of_atoms>
20

> <r_m_molecular_weight>
177.16389

> <s_m_molecular_formula>
C8H7N3O2

> <r_epik_Ionization_Penalty>
  0.0259

> <r_epik_Ionization_Penalty_Charging>
  0.0259

> <r_epik_Ionization_Penalty_Neutral>
  0.0000

> <r_epik_State_Penalty>
  0.0259

> <i_epik_Tot_Q>
0

> <r_epik_Metal_State_Penalty>
  0.4171

> <b_epik_Metal_Only>
0

> <s_m_entry_id>
4989

> <s_canvas_Unique_SMILES_Stereo>
O=c1[nH]c(=O)n(C)c(c12)nccc2

$$$$
Schrodinger_fragment_414_a
                    3D
 Structure written by MMmdl.
 19 20  0  0  1  0            999 V2000
    1.4619   -2.2685    0.0305 N   0  5  0  0  0  0
    1.4686   -3.6252    0.0323 C   0  0  0  0  0  0
    2.6450   -4.3076    0.0294 N   0  0  0  0  0  0
    3.9040   -3.6224    0.0243 C   0  0  0  0  0  0
    3.8789   -2.2086    0.0225 C   0  0  0  0  0  0
    2.5647   -1.4842    0.0258 C   0  0  0  0  0  0
    5.0832   -4.3019    0.0214 N   0  0  0  0  0  0
    6.2469   -3.6208    0.0167 C   0  0  0  0  0  0
    6.3063   -2.2215    0.0146 C   0  0  0  0  0  0
    5.1002   -1.5012    0.0175 C   0  0  0  0  0  0
    0.4026   -4.2529    0.0367 O   0  0  0  0  0  0
    2.5454   -0.2503    0.0241 O   0  0  0  0  0  0
    2.6088   -5.7814    0.0315 C   0  0  0  0  0  0
    7.1520   -4.2100    0.0146 H   0  0  0  0  0  0
    7.2597   -1.7112    0.0108 H   0  0  0  0  0  0
    5.1186   -0.4208    0.0160 H   0  0  0  0  0  0
    3.5883   -6.2564    0.0288 H   0  0  0  0  0  0
    2.0784   -6.1471   -0.8487 H   0  0  0  0  0  0
    2.0843   -6.1447    0.9161 H   0  0  0  0  0  0
  1  2  1  0  0  0
  1  6  1  0  0  0
  2  3  1  0  0  0
  2 11  2  0  0  0
  3  4  1  0  0  0
  3 13  1  0  0  0
  4  5  1  0  0  0
  4  7  2  0  0  0
  5  6  1  0  0  0
  5 10  2  0  0  0
  6 12  2  0  0  0
  7  8  1  0  0  0
  8  9  2  0  0  0
  8 14  1  0  0  0
  9 10  1  0  0  0
  9 15  1  0  0  0
 10 16  1  0  0  0
 13 17  1  0  0  0
 13 18  1  0  0  0
 13 19  1  0  0  0
M  CHG  1   1  -1
M  END
> <s_m_entry_name>
Schrodinger_fragment_517

> <i_m_number_of_atoms>
20

> <r_m_molecular_weight>
177.16389

> <s_m_molecular_formula>
C8H7N3O2

> <r_epik_Ionization_Penalty>
  1.8675

> <r_epik_Ionization_Penalty_Charging>
  0.0000

> <r_epik_Ionization_Penalty_Neutral>
  1.8675

> <r_epik_State_Penalty>
  1.8675

> <i_epik_Tot_Q>
-1

> <r_epik_Metal_State_Penalty>
  0.4043

> <b_epik_Metal_Only>
0

> <s_m_entry_id>
4990

> <s_canvas_Unique_SMILES_Stereo>
O=c1[n-]c(=O)n(C)c(c12)nccc2

$$$$
Schrodinger_fragment_415
                    3D
 Structure written by MMmdl.
 18 19  0  0  1  0            999 V2000
    1.2599    3.5074    0.0315 N   0  0  0  0  0  0
    1.2278    2.1182    0.0288 C   0  0  0  0  0  0
    2.4524    1.4692    0.0242 N   0  0  0  0  0  0
    3.6382    2.1734    0.0225 C   0  0  0  0  0  0
    3.6707    3.5365    0.0252 C   0  0  0  0  0  0
    2.4151    4.2929    0.0301 C   0  0  0  0  0  0
    4.8785    1.3873    0.0176 C   0  0  0  0  0  0
    6.0189    2.1103    0.0161 N   0  0  0  0  0  0
    6.0679    3.5101    0.0188 C   0  0  0  0  0  0
    4.9399    4.2396    0.0232 C   0  0  0  0  0  0
    0.1712    1.4942    0.0304 O   0  0  0  0  0  0
    2.3119    5.5216    0.0328 O   0  0  0  0  0  0
    4.9095    0.1537    0.0150 O   0  0  0  0  0  0
    0.3728    3.9931    0.0349 H   0  0  0  0  0  0
    2.4857    0.4545    0.0221 H   0  0  0  0  0  0
    6.8989    1.6124    0.0127 H   0  0  0  0  0  0
    7.0658    3.9278    0.0170 H   0  0  0  0  0  0
    4.9797    5.3204    0.0253 H   0  0  0  0  0  0
  1  2  1  0  0  0
  1  6  1  0  0  0
  1 14  1  0  0  0
  2  3  1  0  0  0
  2 11  2  0  0  0
  3  4  1  0  0  0
  3 15  1  0  0  0
  4  5  2  0  0  0
  4  7  1  0  0  0
  5  6  1  0  0  0
  5 10  1  0  0  0
  6 12  2  0  0  0
  7  8  1  0  0  0
  7 13  2  0  0  0
  8  9  1  0  0  0
  8 16  1  0  0  0
  9 10  2  0  0  0
  9 17  1  0  0  0
 10 18  1  0  0  0
M  END
> <s_m_entry_name>
Schrodinger_fragment_519

> <i_m_number_of_atoms>
18

> <r_m_molecular_weight>
179.1362

> <s_m_molecular_formula>
C7H5N3O3

> <r_epik_Ionization_Penalty>
  0.0665

> <r_epik_Ionization_Penalty_Charging>
  0.0665

> <r_epik_Ionization_Penalty_Neutral>
  0.0000

> <r_epik_State_Penalty>
  0.0634

> <i_epik_Tot_Q>
0

> <r_epik_Metal_State_Penalty>
  1.6271

> <b_epik_Metal_Only>
0

> <s_m_entry_id>
4991

> <s_canvas_Unique_SMILES_Stereo>
c1c[nH]c(=O)c(c12)[nH]c(=O)[nH]c2=O

$$$$
Schrodinger_fragment_415_a
                    3D
 Structure written by MMmdl.
 17 18  0  0  1  0            999 V2000
    1.2941    3.4867    0.0314 N   0  0  0  0  0  0
    1.2962    2.1023    0.0286 C   0  0  0  0  0  0
    2.4086    1.4546    0.0243 N   0  0  0  0  0  0
    3.6319    2.1503    0.0225 C   0  0  0  0  0  0
    3.6606    3.5134    0.0252 C   0  0  0  0  0  0
    2.4005    4.2585    0.0300 C   0  0  0  0  0  0
    4.8927    1.3853    0.0176 C   0  0  0  0  0  0
    6.0238    2.1233    0.0161 N   0  0  0  0  0  0
    6.0586    3.5220    0.0188 C   0  0  0  0  0  0
    4.9212    4.2342    0.0233 C   0  0  0  0  0  0
    0.1232    1.7236    0.0310 O   0  5  0  0  0  0
    2.3042    5.4880    0.0328 O   0  0  0  0  0  0
    4.9557    0.1529    0.0149 O   0  0  0  0  0  0
    0.4020    3.9611    0.0347 H   0  0  0  0  0  0
    6.9083    1.6345    0.0127 H   0  0  0  0  0  0
    7.0514    3.9512    0.0170 H   0  0  0  0  0  0
    4.9462    5.3157    0.0254 H   0  0  0  0  0  0
  1  2  1  0  0  0
  1  6  1  0  0  0
  1 14  1  0  0  0
  2  3  2  0  0  0
  2 11  1  0  0  0
  3  4  1  0  0  0
  4  5  2  0  0  0
  4  7  1  0  0  0
  5  6  1  0  0  0
  5 10  1  0  0  0
  6 12  2  0  0  0
  7  8  1  0  0  0
  7 13  2  0  0  0
  8  9  1  0  0  0
  8 15  1  0  0  0
  9 10  2  0  0  0
  9 16  1  0  0  0
 10 17  1  0  0  0
M  CHG  1  11  -1
M  END
> <s_m_entry_name>
Schrodinger_fragment_519

> <i_m_number_of_atoms>
18

> <r_m_molecular_weight>
179.1362

> <s_m_molecular_formula>
C7H5N3O3

> <r_epik_Ionization_Penalty>
  1.4320

> <r_epik_Ionization_Penalty_Charging>
  0.0021

> <r_epik_Ionization_Penalty_Neutral>
  1.4299

> <r_epik_State_Penalty>
  1.4378

> <i_epik_Tot_Q>
-1

> <r_epik_Metal_State_Penalty>
  0.6266

> <b_epik_Metal_Only>
0

> <s_m_entry_id>
4992

> <s_canvas_Unique_SMILES_Stereo>
c1c[nH]c(=O)c(c12)nc([O-])[nH]c2=O

$$$$
Schrodinger_fragment_415_b
                    3D
 Structure written by MMmdl.
 17 18  0  0  1  0            999 V2000
    1.2489    3.4955    0.0316 N   0  5  0  0  0  0
    1.2536    2.1347    0.0288 C   0  0  0  0  0  0
    2.4262    1.4903    0.0244 N   0  0  0  0  0  0
    3.6468    2.1718    0.0225 C   0  0  0  0  0  0
    3.6728    3.5282    0.0252 C   0  0  0  0  0  0
    2.3919    4.2373    0.0300 C   0  0  0  0  0  0
    4.8832    1.3860    0.0176 C   0  0  0  0  0  0
    6.0229    2.1115    0.0160 N   0  0  0  0  0  0
    6.0699    3.5130    0.0188 C   0  0  0  0  0  0
    4.9391    4.2396    0.0232 C   0  0  0  0  0  0
    0.2297    1.4577    0.0301 O   0  0  0  0  0  0
    2.3472    5.4721    0.0326 O   0  0  0  0  0  0
    4.9134    0.1531    0.0150 O   0  0  0  0  0  0
    2.4667    0.4781    0.0222 H   0  0  0  0  0  0
    6.9027    1.6140    0.0127 H   0  0  0  0  0  0
    7.0670    3.9324    0.0170 H   0  0  0  0  0  0
    4.9710    5.3208    0.0253 H   0  0  0  0  0  0
  1  2  1  0  0  0
  1  6  1  0  0  0
  2  3  1  0  0  0
  2 11  2  0  0  0
  3  4  1  0  0  0
  3 14  1  0  0  0
  4  5  2  0  0  0
  4  7  1  0  0  0
  5  6  1  0  0  0
  5 10  1  0  0  0
  6 12  2  0  0  0
  7  8  1  0  0  0
  7 13  2  0  0  0
  8  9  1  0  0  0
  8 15  1  0  0  0
  9 10  2  0  0  0
  9 16  1  0  0  0
 10 17  1  0  0  0
M  CHG  1   1  -1
M  END
> <s_m_entry_name>
Schrodinger_fragment_519

> <i_m_number_of_atoms>
18

> <r_m_molecular_weight>
179.1362

> <s_m_molecular_formula>
C7H5N3O3

> <r_epik_Ionization_Penalty>
  2.5130

> <r_epik_Ionization_Penalty_Charging>
  0.0018

> <r_epik_Ionization_Penalty_Neutral>
  2.5112

> <r_epik_State_Penalty>
  2.5660

> <i_epik_Tot_Q>
-1

> <r_epik_Metal_State_Penalty>
  0.7067

> <b_epik_Metal_Only>
0

> <s_m_entry_id>
4993

> <s_canvas_Unique_SMILES_Stereo>
c1c[nH]c(=O)c(c12)[nH]c(=O)[n-]c2=O

$$$$
Schrodinger_fragment_415_c
                    3D
 Structure written by MMmdl.
 17 18  0  0  1  0            999 V2000
    1.2620    3.4928    0.0315 N   0  0  0  0  0  0
    1.2300    2.1417    0.0289 C   0  0  0  0  0  0
    2.4143    1.4992    0.0244 N   0  0  0  0  0  0
    3.6615    2.1602    0.0224 C   0  0  0  0  0  0
    3.6748    3.5649    0.0252 C   0  0  0  0  0  0
    2.3548    4.2816    0.0302 C   0  0  0  0  0  0
    4.8779    1.4711    0.0178 C   0  0  0  0  0  0
    6.0633    2.0917    0.0159 N   0  0  0  0  0  0
    6.0840    3.4501    0.0186 C   0  0  0  0  0  0
    4.9163    4.2275    0.0233 C   0  0  0  0  0  0
    0.1684    1.5208    0.0304 O   0  0  0  0  0  0
    2.2854    5.5170    0.0329 O   0  0  0  0  0  0
    4.9530    0.1156    0.0148 O   0  5  0  0  0  0
    0.3749    3.9658    0.0348 H   0  0  0  0  0  0
    2.4200    0.4863    0.0223 H   0  0  0  0  0  0
    7.0567    3.9198    0.0170 H   0  0  0  0  0  0
    4.9683    5.3081    0.0253 H   0  0  0  0  0  0
  1  2  1  0  0  0
  1  6  1  0  0  0
  1 14  1  0  0  0
  2  3  1  0  0  0
  2 11  2  0  0  0
  3  4  1  0  0  0
  3 15  1  0  0  0
  4  5  2  0  0  0
  4  7  1  0  0  0
  5  6  1  0  0  0
  5 10  1  0  0  0
  6 12  2  0  0  0
  7  8  2  0  0  0
  7 13  1  0  0  0
  8  9  1  0  0  0
  9 10  2  0  0  0
  9 16  1  0  0  0
 10 17  1  0  0  0
M  CHG  1  13  -1
M  END
> <s_m_entry_name>
Schrodinger_fragment_519

> <i_m_number_of_atoms>
18

> <r_m_molecular_weight>
179.1362

> <s_m_molecular_formula>
C7H5N3O3

> <r_epik_Ionization_Penalty>
  3.3363

> <r_epik_Ionization_Penalty_Charging>
  0.0623

> <r_epik_Ionization_Penalty_Neutral>
  3.2740

> <r_epik_State_Penalty>
  3.3350

> <i_epik_Tot_Q>
-1

> <r_epik_Metal_State_Penalty>
  0.8060

> <b_epik_Metal_Only>
1

> <s_m_entry_id>
4994

> <s_canvas_Unique_SMILES_Stereo>
c1cnc([O-])c(c12)[nH]c(=O)[nH]c2=O

$$$$
Schrodinger_fragment_415_d
                    3D
 Structure written by MMmdl.
 16 17  0  0  1  0            999 V2000
    1.2658    3.4986    0.0315 N   0  0  0  0  0  0
    1.3034    2.1091    0.0286 C   0  0  0  0  0  0
    2.4142    1.4416    0.0243 N   0  0  0  0  0  0
    3.6354    2.1423    0.0225 C   0  0  0  0  0  0
    3.6632    3.5572    0.0253 C   0  0  0  0  0  0
    2.3540    4.2886    0.0302 C   0  0  0  0  0  0
    4.8712    1.4732    0.0178 C   0  0  0  0  0  0
    6.0524    2.1013    0.0159 N   0  0  0  0  0  0
    6.0695    3.4567    0.0186 C   0  0  0  0  0  0
    4.9003    4.2254    0.0233 C   0  0  0  0  0  0
    0.1321    1.7236    0.0309 O   0  5  0  0  0  0
    2.2840    5.5216    0.0329 O   0  0  0  0  0  0
    4.9811    0.1189    0.0148 O   0  5  0  0  0  0
    0.3662    3.9541    0.0348 H   0  0  0  0  0  0
    7.0402    3.9306    0.0170 H   0  0  0  0  0  0
    4.9468    5.3063    0.0254 H   0  0  0  0  0  0
  1  2  1  0  0  0
  1  6  1  0  0  0
  1 14  1  0  0  0
  2  3  2  0  0  0
  2 11  1  0  0  0
  3  4  1  0  0  0
  4  5  2  0  0  0
  4  7  1  0  0  0
  5  6  1  0  0  0
  5 10  1  0  0  0
  6 12  2  0  0  0
  7  8  2  0  0  0
  7 13  1  0  0  0
  8  9  1  0  0  0
  9 10  2  0  0  0
  9 15  1  0  0  0
 10 16  1  0  0  0
M  CHG  2  11  -1  13  -1
M  END
> <s_m_entry_name>
Schrodinger_fragment_519

> <i_m_number_of_atoms>
18

> <r_m_molecular_weight>
179.1362

> <s_m_molecular_formula>
C7H5N3O3

> <r_epik_Ionization_Penalty>
  4.8466

> <r_epik_Ionization_Penalty_Charging>
  0.0041

> <r_epik_Ionization_Penalty_Neutral>
  4.8425

> <r_epik_State_Penalty>
  4.7929

> <i_epik_Tot_Q>
-2

> <r_epik_Metal_State_Penalty>
  2.1984

> <b_epik_Metal_Only>
1

> <s_m_entry_id>
4995

> <s_canvas_Unique_SMILES_Stereo>
c1cnc([O-])c(c12)nc([O-])[nH]c2=O

$$$$
Schrodinger_fragment_415_e
                    3D
 Structure written by MMmdl.
 16 17  0  0  1  0            999 V2000
    1.2557    3.5061    0.0316 N   0  0  0  0  0  0
    1.3347    2.1992    0.0287 C   0  0  0  0  0  0
    2.4181    1.4782    0.0244 N   0  0  0  0  0  0
    3.6087    2.1403    0.0225 C   0  0  0  0  0  0
    3.6398    3.5534    0.0253 C   0  0  0  0  0  0
    2.4018    4.1947    0.0299 C   0  0  0  0  0  0
    4.9166    1.3651    0.0175 C   0  0  0  0  0  0
    6.0453    2.1038    0.0160 N   0  0  0  0  0  0
    6.0717    3.5061    0.0187 C   0  0  0  0  0  0
    4.9425    4.2385    0.0232 C   0  0  0  0  0  0
    0.1821    1.5500    0.0304 O   0  5  0  0  0  0
    2.2399    5.5411    0.0331 O   0  5  0  0  0  0
    4.9491    0.1270    0.0149 O   0  0  0  0  0  0
    6.9273    1.6153    0.0126 H   0  0  0  0  0  0
    7.0670    3.9315    0.0170 H   0  0  0  0  0  0
    4.9670    5.3204    0.0254 H   0  0  0  0  0  0
  1  2  1  0  0  0
  1  6  2  0  0  0
  2  3  2  0  0  0
  2 11  1  0  0  0
  3  4  1  0  0  0
  4  5  2  0  0  0
  4  7  1  0  0  0
  5  6  1  0  0  0
  5 10  1  0  0  0
  6 12  1  0  0  0
  7  8  1  0  0  0
  7 13  2  0  0  0
  8  9  1  0  0  0
  8 14  1  0  0  0
  9 10  2  0  0  0
  9 15  1  0  0  0
 10 16  1  0  0  0
M  CHG  2  11  -1  12  -1
M  END
> <s_m_entry_name>
Schrodinger_fragment_519

> <i_m_number_of_atoms>
18

> <r_m_molecular_weight>
179.1362

> <s_m_molecular_formula>
C7H5N3O3

> <r_epik_Ionization_Penalty>
 16.3365

> <r_epik_Ionization_Penalty_Charging>
  0.0252

> <r_epik_Ionization_Penalty_Neutral>
 16.3114

> <r_epik_State_Penalty>
  7.8649

> <i_epik_Tot_Q>
-2

> <r_epik_Metal_State_Penalty>
  4.3849

> <b_epik_Metal_Only>
1

> <s_m_entry_id>
4996

> <s_canvas_Unique_SMILES_Stereo>
c1c[nH]c(=O)c(c12)nc([O-])nc2[O-]

$$$$
Schrodinger_fragment_415_f
                    3D
 Structure written by MMmdl.
 16 17  0  0  1  0            999 V2000
    1.2313    3.4995    0.0316 N   0  5  0  0  0  0
    1.2492    2.1372    0.0288 C   0  0  0  0  0  0
    2.4196    1.4843    0.0244 N   0  0  0  0  0  0
    3.6621    2.1498    0.0224 C   0  0  0  0  0  0
    3.6653    3.5566    0.0252 C   0  0  0  0  0  0
    2.3447    4.2906    0.0302 C   0  0  0  0  0  0
    4.8809    1.4650    0.0178 C   0  0  0  0  0  0
    6.0647    2.0890    0.0159 N   0  0  0  0  0  0
    6.0782    3.4471    0.0186 C   0  0  0  0  0  0
    4.9077    4.2191    0.0233 C   0  0  0  0  0  0
    0.2263    1.4589    0.0301 O   0  0  0  0  0  0
    2.3271    5.5286    0.0328 O   0  0  0  0  0  0
    4.9626    0.1095    0.0148 O   0  5  0  0  0  0
    2.4318    0.4709    0.0223 H   0  0  0  0  0  0
    7.0485    3.9216    0.0170 H   0  0  0  0  0  0
    4.9540    5.2997    0.0254 H   0  0  0  0  0  0
  1  2  1  0  0  0
  1  6  1  0  0  0
  2  3  1  0  0  0
  2 11  2  0  0  0
  3  4  1  0  0  0
  3 14  1  0  0  0
  4  5  1  0  0  0
  4  7  2  0  0  0
  5  6  1  0  0  0
  5 10  2  0  0  0
  6 12  2  0  0  0
  7  8  1  0  0  0
  7 13  1  0  0  0
  8  9  2  0  0  0
  9 10  1  0  0  0
  9 15  1  0  0  0
 10 16  1  0  0  0
M  CHG  2   1  -1  13  -1
M  END
> <s_m_entry_name>
Schrodinger_fragment_519

> <i_m_number_of_atoms>
18

> <r_m_molecular_weight>
179.1362

> <s_m_molecular_formula>
C7H5N3O3

> <r_epik_Ionization_Penalty>
  5.8686

> <r_epik_Ionization_Penalty_Charging>
  0.0051

> <r_epik_Ionization_Penalty_Neutral>
  5.8635

> <r_epik_State_Penalty>
  6.0298

> <i_epik_Tot_Q>
-2

> <r_epik_Metal_State_Penalty>
  3.3530

> <b_epik_Metal_Only>
1

> <s_m_entry_id>
4997

> <s_canvas_Unique_SMILES_Stereo>
c1cnc([O-])c(c12)[nH]c(=O)[n-]c2=O

$$$$
Schrodinger_fragment_416
                    3D
 Structure written by MMmdl.
 21 22  0  0  1  0            999 V2000
    1.4340   -2.2065    0.0289 N   0  0  0  0  0  0
    1.4063   -3.6136    0.0262 C   0  0  0  0  0  0
    2.6278   -4.2639    0.0225 N   0  0  0  0  0  0
    3.8168   -3.5725    0.0216 C   0  0  0  0  0  0
    3.8638   -2.2115    0.0241 C   0  0  0  0  0  0
    2.6220   -1.4307    0.0280 C   0  0  0  0  0  0
    5.0469   -4.3753    0.0181 C   0  0  0  0  0  0
    6.1966   -3.6681    0.0176 N   0  0  0  0  0  0
    6.2633   -2.2697    0.0200 C   0  0  0  0  0  0
    5.1446   -1.5265    0.0232 C   0  0  0  0  0  0
    0.3640   -4.2681    0.0271 O   0  0  0  0  0  0
    2.5901   -0.1946    0.0305 O   0  0  0  0  0  0
    5.0611   -5.6091    0.0157 O   0  0  0  0  0  0
    0.1462   -1.5436    0.0333 C   0  0  0  0  0  0
    2.6528   -5.2779    0.0206 H   0  0  0  0  0  0
    7.0701   -4.1775    0.0153 H   0  0  0  0  0  0
    7.2665   -1.8646    0.0191 H   0  0  0  0  0  0
    5.2015   -0.4464    0.0250 H   0  0  0  0  0  0
    0.2553   -0.4597    0.0341 H   0  0  0  0  0  0
   -0.3786   -1.8633    0.9353 H   0  0  0  0  0  0
   -0.3839   -1.8614   -0.8662 H   0  0  0  0  0  0
  1  2  1  0  0  0
  1  6  1  0  0  0
  1 14  1  0  0  0
  2  3  1  0  0  0
  2 11  2  0  0  0
  3  4  1  0  0  0
  3 15  1  0  0  0
  4  5  2  0  0  0
  4  7  1  0  0  0
  5  6  1  0  0  0
  5 10  1  0  0  0
  6 12  2  0  0  0
  7  8  1  0  0  0
  7 13  2  0  0  0
  8  9  1  0  0  0
  8 16  1  0  0  0
  9 10  2  0  0  0
  9 17  1  0  0  0
 10 18  1  0  0  0
 14 19  1  0  0  0
 14 20  1  0  0  0
 14 21  1  0  0  0
M  END
> <s_m_entry_name>
Schrodinger_fragment_520

> <i_m_number_of_atoms>
21

> <r_m_molecular_weight>
193.16329

> <s_m_molecular_formula>
C8H7N3O3

> <r_epik_Ionization_Penalty>
  0.0336

> <r_epik_Ionization_Penalty_Charging>
  0.0336

> <r_epik_Ionization_Penalty_Neutral>
  0.0000

> <r_epik_State_Penalty>
  0.0324

> <i_epik_Tot_Q>
0

> <r_epik_Metal_State_Penalty>
  1.0999

> <b_epik_Metal_Only>
0

> <s_m_entry_id>
4998

> <s_canvas_Unique_SMILES_Stereo>
O=c1n(C)c(=O)[nH]c(c12)c(=O)[nH]cc2

$$$$
Schrodinger_fragment_416_a
                    3D
 Structure written by MMmdl.
 20 21  0  0  1  0            999 V2000
    1.4653   -2.1815    0.0291 N   0  0  0  0  0  0
    1.4471   -3.5517    0.0264 C   0  0  0  0  0  0
    2.6507   -4.2511    0.0228 N   0  0  0  0  0  0
    3.7822   -3.6586    0.0219 C   0  0  0  0  0  0
    3.8574   -2.1879    0.0246 C   0  0  0  0  0  0
    2.6941   -1.4661    0.0283 C   0  0  0  0  0  0
    5.1024   -4.4315    0.0180 C   0  0  0  0  0  0
    6.2244   -3.6765    0.0172 N   0  0  0  0  0  0
    6.2697   -2.2746    0.0198 C   0  0  0  0  0  0
    5.1515   -1.5286    0.0234 C   0  0  0  0  0  0
    0.3815   -4.1674    0.0272 O   0  0  0  0  0  0
    2.4733   -0.2342    0.0311 O   0  5  0  0  0  0
    5.1394   -5.6662    0.0158 O   0  0  0  0  0  0
    0.1314   -1.5179    0.0331 C   0  0  0  0  0  0
    7.1092   -4.1627    0.0146 H   0  0  0  0  0  0
    7.2708   -1.8625    0.0186 H   0  0  0  0  0  0
    5.2229   -0.4478    0.0252 H   0  0  0  0  0  0
    0.1139   -0.4281    0.0341 H   0  0  0  0  0  0
   -0.4373   -1.8217    0.9144 H   0  0  0  0  0  0
   -0.4420   -1.8200   -0.8457 H   0  0  0  0  0  0
  1  2  1  0  0  0
  1  6  1  0  0  0
  1 14  1  0  0  0
  2  3  1  0  0  0
  2 11  2  0  0  0
  3  4  2  0  0  0
  4  5  1  0  0  0
  4  7  1  0  0  0
  5  6  2  0  0  0
  5 10  1  0  0  0
  6 12  1  0  0  0
  7  8  1  0  0  0
  7 13  2  0  0  0
  8  9  1  0  0  0
  8 15  1  0  0  0
  9 10  2  0  0  0
  9 16  1  0  0  0
 10 17  1  0  0  0
 14 18  1  0  0  0
 14 19  1  0  0  0
 14 20  1  0  0  0
M  CHG  1  12  -1
M  END
> <s_m_entry_name>
Schrodinger_fragment_520

> <i_m_number_of_atoms>
21

> <r_m_molecular_weight>
193.16329

> <s_m_molecular_formula>
C8H7N3O3

> <r_epik_Ionization_Penalty>
  1.7393

> <r_epik_Ionization_Penalty_Charging>
  0.0011

> <r_epik_Ionization_Penalty_Neutral>
  1.7383

> <r_epik_State_Penalty>
  1.7383

> <i_epik_Tot_Q>
-1

> <r_epik_Metal_State_Penalty>
  0.4109

> <b_epik_Metal_Only>
0

> <s_m_entry_id>
4999

> <s_canvas_Unique_SMILES_Stereo>
[O-]c1n(C)c(=O)nc(c12)c(=O)[nH]cc2

$$$$
Schrodinger_fragment_416_b
                    3D
 Structure written by MMmdl.
 20 21  0  0  1  0            999 V2000
    1.4395   -2.2162    0.0289 N   0  0  0  0  0  0
    1.4269   -3.5871    0.0262 C   0  0  0  0  0  0
    2.6074   -4.2337    0.0225 N   0  0  0  0  0  0
    3.8575   -3.5927    0.0215 C   0  0  0  0  0  0
    3.8848   -2.1922    0.0241 C   0  0  0  0  0  0
    2.5755   -1.4544    0.0279 C   0  0  0  0  0  0
    5.0639   -4.2992    0.0181 C   0  0  0  0  0  0
    6.2574   -3.6953    0.0173 N   0  0  0  0  0  0
    6.2957   -2.3377    0.0197 C   0  0  0  0  0  0
    5.1373   -1.5467    0.0232 C   0  0  0  0  0  0
    0.3834   -4.2452    0.0272 O   0  0  0  0  0  0
    2.5742   -0.2136    0.0301 O   0  0  0  0  0  0
    5.1195   -5.6555    0.0156 O   0  5  0  0  0  0
    0.1244   -1.5435    0.0335 C   0  0  0  0  0  0
    2.6016   -5.2460    0.0205 H   0  0  0  0  0  0
    7.2742   -1.8801    0.0190 H   0  0  0  0  0  0
    5.2052   -0.4668    0.0251 H   0  0  0  0  0  0
    0.1689   -0.4538    0.0345 H   0  0  0  0  0  0
   -0.4476   -1.8334    0.9165 H   0  0  0  0  0  0
   -0.4528   -1.8314   -0.8468 H   0  0  0  0  0  0
  1  2  1  0  0  0
  1  6  1  0  0  0
  1 14  1  0  0  0
  2  3  1  0  0  0
  2 11  2  0  0  0
  3  4  1  0  0  0
  3 15  1  0  0  0
  4  5  2  0  0  0
  4  7  1  0  0  0
  5  6  1  0  0  0
  5 10  1  0  0  0
  6 12  2  0  0  0
  7  8  2  0  0  0
  7 13  1  0  0  0
  8  9  1  0  0  0
  9 10  2  0  0  0
  9 16  1  0  0  0
 10 17  1  0  0  0
 14 18  1  0  0  0
 14 19  1  0  0  0
 14 20  1  0  0  0
M  CHG  1  13  -1
M  END
> <s_m_entry_name>
Schrodinger_fragment_520

> <i_m_number_of_atoms>
21

> <r_m_molecular_weight>
193.16329

> <s_m_molecular_formula>
C8H7N3O3

> <r_epik_Ionization_Penalty>
  3.6883

> <r_epik_Ionization_Penalty_Charging>
  0.0310

> <r_epik_Ionization_Penalty_Neutral>
  3.6573

> <r_epik_State_Penalty>
  3.6884

> <i_epik_Tot_Q>
-1

> <r_epik_Metal_State_Penalty>
  0.6633

> <b_epik_Metal_Only>
1

> <s_m_entry_id>
5000

> <s_canvas_Unique_SMILES_Stereo>
O=c1n(C)c(=O)[nH]c(c12)c([O-])ncc2

$$$$
Schrodinger_fragment_416_c
                    3D
 Structure written by MMmdl.
 19 20  0  0  1  0            999 V2000
    1.4617   -2.1846    0.0289 N   0  0  0  0  0  0
    1.4498   -3.5555    0.0261 C   0  0  0  0  0  0
    2.6560   -4.2508    0.0225 N   0  0  0  0  0  0
    3.7897   -3.6529    0.0216 C   0  0  0  0  0  0
    3.8499   -2.1877    0.0242 C   0  0  0  0  0  0
    2.6888   -1.4662    0.0278 C   0  0  0  0  0  0
    5.1546   -4.3660    0.0179 C   0  0  0  0  0  0
    6.2566   -3.7148    0.0172 N   0  0  0  0  0  0
    6.2795   -2.3036    0.0198 C   0  0  0  0  0  0
    5.1583   -1.5479    0.0231 C   0  0  0  0  0  0
    0.3862   -4.1747    0.0270 O   0  0  0  0  0  0
    2.4664   -0.2346    0.0305 O   0  5  0  0  0  0
    4.9984   -5.5944    0.0159 O   0  5  0  0  0  0
    0.1260   -1.5248    0.0335 C   0  0  0  0  0  0
    7.2587   -1.8369    0.0189 H   0  0  0  0  0  0
    5.2384   -0.4672    0.0249 H   0  0  0  0  0  0
    0.1064   -0.4351    0.0346 H   0  0  0  0  0  0
   -0.4413   -1.8305    0.9149 H   0  0  0  0  0  0
   -0.4467   -1.8285   -0.8452 H   0  0  0  0  0  0
  1  2  1  0  0  0
  1  6  1  0  0  0
  1 14  1  0  0  0
  2  3  1  0  0  0
  2 11  2  0  0  0
  3  4  2  0  0  0
  4  5  1  0  0  0
  4  7  1  0  0  0
  5  6  2  0  0  0
  5 10  1  0  0  0
  6 12  1  0  0  0
  7  8  2  0  0  0
  7 13  1  0  0  0
  8  9  1  0  0  0
  9 10  2  0  0  0
  9 15  1  0  0  0
 10 16  1  0  0  0
 14 17  1  0  0  0
 14 18  1  0  0  0
 14 19  1  0  0  0
M  CHG  2  12  -1  13  -1
M  END
> <s_m_entry_name>
Schrodinger_fragment_520

> <i_m_number_of_atoms>
21

> <r_m_molecular_weight>
193.16329

> <s_m_molecular_formula>
C8H7N3O3

> <r_epik_Ionization_Penalty>
  5.5413

> <r_epik_Ionization_Penalty_Charging>
  0.0049

> <r_epik_Ionization_Penalty_Neutral>
  5.5364

> <r_epik_State_Penalty>
  5.4778

> <i_epik_Tot_Q>
-2

> <r_epik_Metal_State_Penalty>
  2.3976

> <b_epik_Metal_Only>
1

> <s_m_entry_id>
5001

> <s_canvas_Unique_SMILES_Stereo>
[O-]c1n(C)c(=O)nc(c12)c([O-])ncc2

$$$$
Schrodinger_fragment_417
                    3D
 Structure written by MMmdl.
 21 22  0  0  1  0            999 V2000
    1.5001   -2.3004    0.0295 N   0  0  0  0  0  0
    1.4470   -3.6778    0.0299 C   0  0  0  0  0  0
    2.6677   -4.3924    0.0273 N   0  0  0  0  0  0
    3.8943   -3.6783    0.0243 C   0  0  0  0  0  0
    3.8971   -2.3017    0.0240 C   0  0  0  0  0  0
    2.6516   -1.5377    0.0267 C   0  0  0  0  0  0
    5.2239   -4.3640    0.0214 C   0  0  0  0  0  0
    6.3140   -3.5688    0.0187 N   0  0  0  0  0  0
    6.2920   -2.1793    0.0185 C   0  0  0  0  0  0
    5.1264   -1.5281    0.0210 C   0  0  0  0  0  0
    0.3422   -4.2243    0.0326 O   0  0  0  0  0  0
    2.5523   -0.3085    0.0266 O   0  0  0  0  0  0
    5.4384   -5.5758    0.0212 O   0  0  0  0  0  0
    2.4463   -5.8313    0.0281 C   0  0  0  0  0  0
    0.6194   -1.8057    0.0314 H   0  0  0  0  0  0
    7.2206   -4.0166    0.0168 H   0  0  0  0  0  0
    7.2647   -1.7057    0.0161 H   0  0  0  0  0  0
    5.1110   -0.4464    0.0208 H   0  0  0  0  0  0
    3.3594   -6.4028    0.0262 H   0  0  0  0  0  0
    1.8789   -6.0785   -0.8719 H   0  0  0  0  0  0
    1.8830   -6.0781    0.9309 H   0  0  0  0  0  0
  1  2  1  0  0  0
  1  6  1  0  0  0
  1 15  1  0  0  0
  2  3  1  0  0  0
  2 11  2  0  0  0
  3  4  1  0  0  0
  3 14  1  0  0  0
  4  5  2  0  0  0
  4  7  1  0  0  0
  5  6  1  0  0  0
  5 10  1  0  0  0
  6 12  2  0  0  0
  7  8  1  0  0  0
  7 13  2  0  0  0
  8  9  1  0  0  0
  8 16  1  0  0  0
  9 10  2  0  0  0
  9 17  1  0  0  0
 10 18  1  0  0  0
 14 19  1  0  0  0
 14 20  1  0  0  0
 14 21  1  0  0  0
M  END
> <s_m_entry_name>
Schrodinger_fragment_521

> <i_m_number_of_atoms>
21

> <r_m_molecular_weight>
193.16329

> <s_m_molecular_formula>
C8H7N3O3

> <r_epik_Ionization_Penalty>
  0.0063

> <r_epik_Ionization_Penalty_Charging>
  0.0063

> <r_epik_Ionization_Penalty_Neutral>
  0.0000

> <r_epik_State_Penalty>
  0.0000

> <i_epik_Tot_Q>
0

> <r_epik_Metal_State_Penalty>
  1.0088

> <b_epik_Metal_Only>
0

> <s_m_entry_id>
5002

> <s_canvas_Unique_SMILES_Stereo>
O=c1[nH]c(=O)n(C)c(c12)c(=O)[nH]cc2

$$$$
Schrodinger_fragment_417_a
                    3D
 Structure written by MMmdl.
 20 21  0  0  1  0            999 V2000
    1.4875   -2.2906    0.0295 N   0  5  0  0  0  0
    1.4647   -3.6432    0.0299 C   0  0  0  0  0  0
    2.6299   -4.3539    0.0274 N   0  0  0  0  0  0
    3.8954   -3.6644    0.0243 C   0  0  0  0  0  0
    3.8991   -2.2954    0.0240 C   0  0  0  0  0  0
    2.6310   -1.5755    0.0267 C   0  0  0  0  0  0
    5.2169   -4.3578    0.0214 C   0  0  0  0  0  0
    6.3107   -3.5668    0.0187 N   0  0  0  0  0  0
    6.2941   -2.1758    0.0185 C   0  0  0  0  0  0
    5.1297   -1.5207    0.0210 C   0  0  0  0  0  0
    0.3828   -4.2366    0.0325 O   0  0  0  0  0  0
    2.5938   -0.3406    0.0266 O   0  0  0  0  0  0
    5.4213   -5.5704    0.0212 O   0  0  0  0  0  0
    2.4716   -5.8291    0.0281 C   0  0  0  0  0  0
    7.2146   -4.0193    0.0168 H   0  0  0  0  0  0
    7.2685   -1.7059    0.0161 H   0  0  0  0  0  0
    5.1134   -0.4390    0.0208 H   0  0  0  0  0  0
    3.3526   -6.4529    0.0262 H   0  0  0  0  0  0
    1.9013   -6.1403   -0.8493 H   0  0  0  0  0  0
    1.9054   -6.1399    0.9082 H   0  0  0  0  0  0
  1  2  1  0  0  0
  1  6  1  0  0  0
  2  3  1  0  0  0
  2 11  2  0  0  0
  3  4  1  0  0  0
  3 14  1  0  0  0
  4  5  2  0  0  0
  4  7  1  0  0  0
  5  6  1  0  0  0
  5 10  1  0  0  0
  6 12  2  0  0  0
  7  8  1  0  0  0
  7 13  2  0  0  0
  8  9  1  0  0  0
  8 15  1  0  0  0
  9 10  2  0  0  0
  9 16  1  0  0  0
 10 17  1  0  0  0
 14 18  1  0  0  0
 14 19  1  0  0  0
 14 20  1  0  0  0
M  CHG  1   1  -1
M  END
> <s_m_entry_name>
Schrodinger_fragment_521

> <i_m_number_of_atoms>
21

> <r_m_molecular_weight>
193.16329

> <s_m_molecular_formula>
C8H7N3O3

> <r_epik_Ionization_Penalty>
  2.8115

> <r_epik_Ionization_Penalty_Charging>
  0.0008

> <r_epik_Ionization_Penalty_Neutral>
  2.8107

> <r_epik_State_Penalty>
  2.8055

> <i_epik_Tot_Q>
-1

> <r_epik_Metal_State_Penalty>
  0.4414

> <b_epik_Metal_Only>
1

> <s_m_entry_id>
5003

> <s_canvas_Unique_SMILES_Stereo>
O=c1[n-]c(=O)n(C)c(c12)c(=O)[nH]cc2

$$$$
Schrodinger_fragment_417_b
                    3D
 Structure written by MMmdl.
 20 21  0  0  1  0            999 V2000
    1.5031   -2.3063    0.0295 N   0  0  0  0  0  0
    1.4510   -3.6471    0.0299 C   0  0  0  0  0  0
    2.6281   -4.3491    0.0274 N   0  0  0  0  0  0
    3.9196   -3.6747    0.0243 C   0  0  0  0  0  0
    3.9051   -2.2550    0.0240 C   0  0  0  0  0  0
    2.5929   -1.5365    0.0268 C   0  0  0  0  0  0
    5.2123   -4.2706    0.0214 C   0  0  0  0  0  0
    6.3561   -3.5712    0.0186 N   0  0  0  0  0  0
    6.3141   -2.2229    0.0184 C   0  0  0  0  0  0
    5.1090   -1.5253    0.0210 C   0  0  0  0  0  0
    0.3440   -4.1944    0.0326 O   0  0  0  0  0  0
    2.5249   -0.3010    0.0267 O   0  0  0  0  0  0
    5.4898   -5.5968    0.0211 O   0  5  0  0  0  0
    2.4463   -5.8167    0.0281 C   0  0  0  0  0  0
    0.6215   -1.8249    0.0314 H   0  0  0  0  0  0
    7.2598   -1.7009    0.0161 H   0  0  0  0  0  0
    5.1051   -0.4432    0.0208 H   0  0  0  0  0  0
    3.3257   -6.4419    0.0263 H   0  0  0  0  0  0
    1.8737   -6.1241   -0.8494 H   0  0  0  0  0  0
    1.8778   -6.1237    0.9085 H   0  0  0  0  0  0
  1  2  1  0  0  0
  1  6  1  0  0  0
  1 15  1  0  0  0
  2  3  1  0  0  0
  2 11  2  0  0  0
  3  4  1  0  0  0
  3 14  1  0  0  0
  4  5  1  0  0  0
  4  7  2  0  0  0
  5  6  1  0  0  0
  5 10  2  0  0  0
  6 12  2  0  0  0
  7  8  1  0  0  0
  7 13  1  0  0  0
  8  9  2  0  0  0
  9 10  1  0  0  0
  9 16  1  0  0  0
 10 17  1  0  0  0
 14 18  1  0  0  0
 14 19  1  0  0  0
 14 20  1  0  0  0
M  CHG  1  13  -1
M  END
> <s_m_entry_name>
Schrodinger_fragment_521

> <i_m_number_of_atoms>
21

> <r_m_molecular_weight>
193.16329

> <s_m_molecular_formula>
C8H7N3O3

> <r_epik_Ionization_Penalty>
  3.7272

> <r_epik_Ionization_Penalty_Charging>
  0.0082

> <r_epik_Ionization_Penalty_Neutral>
  3.7189

> <r_epik_State_Penalty>
  3.7178

> <i_epik_Tot_Q>
-1

> <r_epik_Metal_State_Penalty>
  0.6339

> <b_epik_Metal_Only>
1

> <s_m_entry_id>
5004

> <s_canvas_Unique_SMILES_Stereo>
O=c1[nH]c(=O)n(C)c(c12)c([O-])ncc2

$$$$
Schrodinger_fragment_418
                    3D
 Structure written by MMmdl.
 21 22  0  0  1  0            999 V2000
    1.4483   -2.2596    0.0249 N   0  0  0  0  0  0
    1.4149   -3.6483    0.0237 C   0  0  0  0  0  0
    2.6393   -4.2979    0.0234 N   0  0  0  0  0  0
    3.8291   -3.5953    0.0243 C   0  0  0  0  0  0
    3.8598   -2.2339    0.0254 C   0  0  0  0  0  0
    2.6042   -1.4756    0.0258 C   0  0  0  0  0  0
    5.0685   -4.3855    0.0239 C   0  0  0  0  0  0
    6.2321   -3.6688    0.0248 N   0  0  0  0  0  0
    6.2560   -2.2610    0.0260 C   0  0  0  0  0  0
    5.1269   -1.5340    0.0263 C   0  0  0  0  0  0
    0.3579   -4.2716    0.0229 O   0  0  0  0  0  0
    2.5020   -0.2468    0.0268 O   0  0  0  0  0  0
    5.0613   -5.6241    0.0229 O   0  0  0  0  0  0
    7.5181   -4.3708    0.0245 C   0  0  0  0  0  0
    0.5617   -1.7730    0.0251 H   0  0  0  0  0  0
    2.6705   -5.3129    0.0226 H   0  0  0  0  0  0
    7.2403   -1.8135    0.0266 H   0  0  0  0  0  0
    5.1656   -0.4531    0.0272 H   0  0  0  0  0  0
    8.3718   -3.6929    0.0253 H   0  0  0  0  0  0
    7.6065   -5.0052   -0.8586 H   0  0  0  0  0  0
    7.6061   -5.0067    0.9065 H   0  0  0  0  0  0
  1  2  1  0  0  0
  1  6  1  0  0  0
  1 15  1  0  0  0
  2  3  1  0  0  0
  2 11  2  0  0  0
  3  4  1  0  0  0
  3 16  1  0  0  0
  4  5  2  0  0  0
  4  7  1  0  0  0
  5  6  1  0  0  0
  5 10  1  0  0  0
  6 12  2  0  0  0
  7  8  1  0  0  0
  7 13  2  0  0  0
  8  9  1  0  0  0
  8 14  1  0  0  0
  9 10  2  0  0  0
  9 17  1  0  0  0
 10 18  1  0  0  0
 14 19  1  0  0  0
 14 20  1  0  0  0
 14 21  1  0  0  0
M  END
> <s_m_entry_name>
Schrodinger_fragment_522

> <i_m_number_of_atoms>
21

> <r_m_molecular_weight>
193.16329

> <s_m_molecular_formula>
C8H7N3O3

> <r_epik_Ionization_Penalty>
  0.0345

> <r_epik_Ionization_Penalty_Charging>
  0.0345

> <r_epik_Ionization_Penalty_Neutral>
  0.0000

> <r_epik_State_Penalty>
  0.0295

> <i_epik_Tot_Q>
0

> <r_epik_Metal_State_Penalty>
  1.7455

> <b_epik_Metal_Only>
0

> <s_m_entry_id>
5005

> <s_canvas_Unique_SMILES_Stereo>
c1cn(C)c(=O)c(c12)[nH]c(=O)[nH]c2=O

$$$$
Schrodinger_fragment_418_a
                    3D
 Structure written by MMmdl.
 20 21  0  0  1  0            999 V2000
    1.4812   -2.2764    0.0249 N   0  0  0  0  0  0
    1.4774   -3.6603    0.0237 C   0  0  0  0  0  0
    2.5874   -4.3119    0.0234 N   0  0  0  0  0  0
    3.8173   -3.6220    0.0243 C   0  0  0  0  0  0
    3.8488   -2.2608    0.0254 C   0  0  0  0  0  0
    2.5908   -1.5097    0.0258 C   0  0  0  0  0  0
    5.0755   -4.3954    0.0239 C   0  0  0  0  0  0
    6.2332   -3.6667    0.0248 N   0  0  0  0  0  0
    6.2458   -2.2600    0.0260 C   0  0  0  0  0  0
    5.1094   -1.5472    0.0263 C   0  0  0  0  0  0
    0.3029   -4.0343    0.0231 O   0  5  0  0  0  0
    2.4994   -0.2798    0.0268 O   0  0  0  0  0  0
    5.0954   -5.6340    0.0229 O   0  0  0  0  0  0
    7.5272   -4.3550    0.0245 C   0  0  0  0  0  0
    0.5912   -1.7982    0.0251 H   0  0  0  0  0  0
    7.2256   -1.8031    0.0266 H   0  0  0  0  0  0
    5.1366   -0.4657    0.0272 H   0  0  0  0  0  0
    8.3739   -3.6686    0.0253 H   0  0  0  0  0  0
    7.6215   -4.9883   -0.8586 H   0  0  0  0  0  0
    7.6211   -4.9898    0.9066 H   0  0  0  0  0  0
  1  2  1  0  0  0
  1  6  1  0  0  0
  1 15  1  0  0  0
  2  3  2  0  0  0
  2 11  1  0  0  0
  3  4  1  0  0  0
  4  5  2  0  0  0
  4  7  1  0  0  0
  5  6  1  0  0  0
  5 10  1  0  0  0
  6 12  2  0  0  0
  7  8  1  0  0  0
  7 13  2  0  0  0
  8  9  1  0  0  0
  8 14  1  0  0  0
  9 10  2  0  0  0
  9 16  1  0  0  0
 10 17  1  0  0  0
 14 18  1  0  0  0
 14 19  1  0  0  0
 14 20  1  0  0  0
M  CHG  1  11  -1
M  END
> <s_m_entry_name>
Schrodinger_fragment_522

> <i_m_number_of_atoms>
21

> <r_m_molecular_weight>
193.16329

> <s_m_molecular_formula>
C8H7N3O3

> <r_epik_Ionization_Penalty>
  1.7912

> <r_epik_Ionization_Penalty_Charging>
  0.0000

> <r_epik_Ionization_Penalty_Neutral>
  1.7912

> <r_epik_State_Penalty>
  1.7912

> <i_epik_Tot_Q>
-1

> <r_epik_Metal_State_Penalty>
  0.4042

> <b_epik_Metal_Only>
0

> <s_m_entry_id>
5006

> <s_canvas_Unique_SMILES_Stereo>
c1cn(C)c(=O)c(c12)nc([O-])[nH]c2=O

$$$$
Schrodinger_fragment_418_b
                    3D
 Structure written by MMmdl.
 20 21  0  0  1  0            999 V2000
    1.4359   -2.2713    0.0249 N   0  5  0  0  0  0
    1.4393   -3.6318    0.0237 C   0  0  0  0  0  0
    2.6115   -4.2767    0.0234 N   0  0  0  0  0  0
    3.8360   -3.5967    0.0243 C   0  0  0  0  0  0
    3.8608   -2.2420    0.0254 C   0  0  0  0  0  0
    2.5794   -1.5307    0.0257 C   0  0  0  0  0  0
    5.0715   -4.3871    0.0239 C   0  0  0  0  0  0
    6.2352   -3.6687    0.0248 N   0  0  0  0  0  0
    6.2576   -2.2593    0.0260 C   0  0  0  0  0  0
    5.1257   -1.5346    0.0263 C   0  0  0  0  0  0
    0.4149   -4.3081    0.0229 O   0  0  0  0  0  0
    2.5356   -0.2960    0.0268 O   0  0  0  0  0  0
    5.0630   -5.6249    0.0229 O   0  0  0  0  0  0
    7.5217   -4.3697    0.0245 C   0  0  0  0  0  0
    2.6502   -5.2892    0.0226 H   0  0  0  0  0  0
    7.2412   -1.8106    0.0266 H   0  0  0  0  0  0
    5.1570   -0.4534    0.0272 H   0  0  0  0  0  0
    8.3745   -3.6908    0.0253 H   0  0  0  0  0  0
    7.6100   -5.0040   -0.8586 H   0  0  0  0  0  0
    7.6096   -5.0054    0.9065 H   0  0  0  0  0  0
  1  2  1  0  0  0
  1  6  1  0  0  0
  2  3  1  0  0  0
  2 11  2  0  0  0
  3  4  1  0  0  0
  3 15  1  0  0  0
  4  5  2  0  0  0
  4  7  1  0  0  0
  5  6  1  0  0  0
  5 10  1  0  0  0
  6 12  2  0  0  0
  7  8  1  0  0  0
  7 13  2  0  0  0
  8  9  1  0  0  0
  8 14  1  0  0  0
  9 10  2  0  0  0
  9 16  1  0  0  0
 10 17  1  0  0  0
 14 18  1  0  0  0
 14 19  1  0  0  0
 14 20  1  0  0  0
M  CHG  1   1  -1
M  END
> <s_m_entry_name>
Schrodinger_fragment_522

> <i_m_number_of_atoms>
21

> <r_m_molecular_weight>
193.16329

> <s_m_molecular_formula>
C8H7N3O3

> <r_epik_Ionization_Penalty>
  2.8361

> <r_epik_Ionization_Penalty_Charging>
  0.0000

> <r_epik_Ionization_Penalty_Neutral>
  2.8361

> <r_epik_State_Penalty>
  2.8606

> <i_epik_Tot_Q>
-1

> <r_epik_Metal_State_Penalty>
  0.4838

> <b_epik_Metal_Only>
1

> <s_m_entry_id>
5007

> <s_canvas_Unique_SMILES_Stereo>
c1cn(C)c(=O)c(c12)[nH]c(=O)[n-]c2=O

$$$$
Schrodinger_fragment_419
                    3D
 Structure written by MMmdl.
 24 25  0  0  1  0            999 V2000
    1.4525   -2.2352    0.0786 N   0  0  0  0  0  0
    1.3990   -3.6371    0.0305 C   0  0  0  0  0  0
    2.6220   -4.3479    0.0556 N   0  0  0  0  0  0
    3.8415   -3.6450    0.0007 C   0  0  0  0  0  0
    3.8722   -2.2749    0.0345 C   0  0  0  0  0  0
    2.6436   -1.4851    0.1021 C   0  0  0  0  0  0
    5.1363   -4.3729   -0.1507 C   0  0  0  0  0  0
    6.2518   -3.6147   -0.1643 N   0  0  0  0  0  0
    6.2703   -2.2252   -0.0957 C   0  0  0  0  0  0
    5.1262   -1.5396   -0.0055 C   0  0  0  0  0  0
    0.3068   -4.2130   -0.0219 O   0  0  0  0  0  0
    2.6260   -0.2500    0.1629 O   0  0  0  0  0  0
    5.2780   -5.5903   -0.2857 O   0  0  0  0  0  0
    0.1762   -1.5419    0.0969 C   0  0  0  0  0  0
    2.5077   -5.7936    0.1775 C   0  0  0  0  0  0
    7.1412   -4.0860   -0.2618 H   0  0  0  0  0  0
    7.2555   -1.7794   -0.1282 H   0  0  0  0  0  0
    5.1481   -0.4591    0.0444 H   0  0  0  0  0  0
    0.3027   -0.4629    0.1752 H   0  0  0  0  0  0
   -0.3798   -1.9051    0.9633 H   0  0  0  0  0  0
   -0.3377   -1.7865   -0.8345 H   0  0  0  0  0  0
    3.2120   -6.1140    0.9451 H   0  0  0  0  0  0
    2.7430   -6.2192   -0.7989 H   0  0  0  0  0  0
    1.5170   -6.1062    0.5074 H   0  0  0  0  0  0
  1  2  1  0  0  0
  1  6  1  0  0  0
  1 14  1  0  0  0
  2  3  1  0  0  0
  2 11  2  0  0  0
  3  4  1  0  0  0
  3 15  1  0  0  0
  4  5  2  0  0  0
  4  7  1  0  0  0
  5  6  1  0  0  0
  5 10  1  0  0  0
  6 12  2  0  0  0
  7  8  1  0  0  0
  7 13  2  0  0  0
  8  9  1  0  0  0
  8 16  1  0  0  0
  9 10  2  0  0  0
  9 17  1  0  0  0
 10 18  1  0  0  0
 14 19  1  0  0  0
 14 20  1  0  0  0
 14 21  1  0  0  0
 15 22  1  0  0  0
 15 23  1  0  0  0
 15 24  1  0  0  0
M  END
> <s_m_entry_name>
Schrodinger_fragment_523

> <i_m_number_of_atoms>
24

> <r_m_molecular_weight>
207.19038

> <s_m_molecular_formula>
C9H9N3O3

> <r_epik_Ionization_Penalty>
  0.0006

> <r_epik_Ionization_Penalty_Charging>
  0.0006

> <r_epik_Ionization_Penalty_Neutral>
  0.0000

> <r_epik_State_Penalty>
  0.0000

> <i_epik_Tot_Q>
0

> <r_epik_Metal_State_Penalty>
  0.4060

> <b_epik_Metal_Only>
0

> <s_m_entry_id>
5008

> <s_canvas_Unique_SMILES_Stereo>
O=c1n(C)c(=O)n(C)c(c12)c(=O)[nH]cc2

$$$$
Schrodinger_fragment_419_a
                    3D
 Structure written by MMmdl.
 23 24  0  0  1  0            999 V2000
    1.4605   -2.2455    0.0645 N   0  0  0  0  0  0
    1.4291   -3.6069   -0.0620 C   0  0  0  0  0  0
    2.5971   -4.3076    0.0649 N   0  0  0  0  0  0
    3.8776   -3.6576   -0.0291 C   0  0  0  0  0  0
    3.8946   -2.2519    0.0837 C   0  0  0  0  0  0
    2.5966   -1.5210    0.2431 C   0  0  0  0  0  0
    5.1263   -4.2925   -0.2496 C   0  0  0  0  0  0
    6.2907   -3.6311   -0.3081 N   0  0  0  0  0  0
    6.2951   -2.2876   -0.1612 C   0  0  0  0  0  0
    5.1202   -1.5581    0.0273 C   0  0  0  0  0  0
    0.3574   -4.1957   -0.2578 O   0  0  0  0  0  0
    2.6052   -0.3019    0.4743 O   0  0  0  0  0  0
    5.3041   -5.6193   -0.4779 O   0  5  0  0  0  0
    0.1617   -1.5373    0.0414 C   0  0  0  0  0  0
    2.5024   -5.7626    0.2803 C   0  0  0  0  0  0
    7.2536   -1.7922   -0.2128 H   0  0  0  0  0  0
    5.1554   -0.4805    0.1197 H   0  0  0  0  0  0
    0.2340   -0.4491    0.0548 H   0  0  0  0  0  0
   -0.4411   -1.8270    0.9037 H   0  0  0  0  0  0
   -0.4007   -1.7907   -0.8590 H   0  0  0  0  0  0
    3.2492   -6.0989    0.9996 H   0  0  0  0  0  0
    2.6490   -6.2999   -0.6575 H   0  0  0  0  0  0
    1.5466   -6.0861    0.6970 H   0  0  0  0  0  0
  1  2  1  0  0  0
  1  6  1  0  0  0
  1 14  1  0  0  0
  2  3  1  0  0  0
  2 11  2  0  0  0
  3  4  1  0  0  0
  3 15  1  0  0  0
  4  5  2  0  0  0
  4  7  1  0  0  0
  5  6  1  0  0  0
  5 10  1  0  0  0
  6 12  2  0  0  0
  7  8  2  0  0  0
  7 13  1  0  0  0
  8  9  1  0  0  0
  9 10  2  0  0  0
  9 16  1  0  0  0
 10 17  1  0  0  0
 14 18  1  0  0  0
 14 19  1  0  0  0
 14 20  1  0  0  0
 15 21  1  0  0  0
 15 22  1  0  0  0
 15 23  1  0  0  0
M  CHG  1  13  -1
M  END
> <s_m_entry_name>
Schrodinger_fragment_523

> <i_m_number_of_atoms>
24

> <r_m_molecular_weight>
207.19038

> <s_m_molecular_formula>
C9H9N3O3

> <r_epik_Ionization_Penalty>
  4.1051

> <r_epik_Ionization_Penalty_Charging>
  0.0023

> <r_epik_Ionization_Penalty_Neutral>
  4.1028

> <r_epik_State_Penalty>
  4.1022

> <i_epik_Tot_Q>
-1

> <r_epik_Metal_State_Penalty>
  0.4154

> <b_epik_Metal_Only>
1

> <s_m_entry_id>
5009

> <s_canvas_Unique_SMILES_Stereo>
O=c1n(C)c(=O)n(C)c(c12)c([O-])ncc2

$$$$
Schrodinger_fragment_420
                    3D
 Structure written by MMmdl.
 24 25  0  0  1  0            999 V2000
    1.4275   -2.2113    0.0147 N   0  0  0  0  0  0
    1.4069   -3.6111   -0.1269 C   0  0  0  0  0  0
    2.6312   -4.2556   -0.1486 N   0  0  0  0  0  0
    3.8195   -3.5666   -0.0374 C   0  0  0  0  0  0
    3.8566   -2.2140    0.1000 C   0  0  0  0  0  0
    2.6109   -1.4381    0.1342 C   0  0  0  0  0  0
    5.0527   -4.3666   -0.0744 C   0  0  0  0  0  0
    6.2207   -3.6668    0.0371 N   0  0  0  0  0  0
    6.2540   -2.2671    0.1791 C   0  0  0  0  0  0
    5.1305   -1.5327    0.2134 C   0  0  0  0  0  0
    0.3687   -4.2640   -0.2291 O   0  0  0  0  0  0
    2.5728   -0.2083    0.2566 O   0  0  0  0  0  0
    5.0358   -5.5988   -0.1990 O   0  0  0  0  0  0
    0.1373   -1.5535    0.0354 C   0  0  0  0  0  0
    7.5008   -4.3791    0.0106 C   0  0  0  0  0  0
    2.6603   -5.2647   -0.2491 H   0  0  0  0  0  0
    7.2406   -1.8318    0.2577 H   0  0  0  0  0  0
    5.1800   -0.4578    0.3233 H   0  0  0  0  0  0
    0.2410   -0.4750    0.1476 H   0  0  0  0  0  0
   -0.4199   -1.9615    0.8807 H   0  0  0  0  0  0
   -0.3567   -1.7813   -0.9108 H   0  0  0  0  0  0
    8.3588   -3.7136    0.1078 H   0  0  0  0  0  0
    7.6154   -4.9237   -0.9277 H   0  0  0  0  0  0
    7.5535   -5.1002    0.8274 H   0  0  0  0  0  0
  1  2  1  0  0  0
  1  6  1  0  0  0
  1 14  1  0  0  0
  2  3  1  0  0  0
  2 11  2  0  0  0
  3  4  1  0  0  0
  3 16  1  0  0  0
  4  5  2  0  0  0
  4  7  1  0  0  0
  5  6  1  0  0  0
  5 10  1  0  0  0
  6 12  2  0  0  0
  7  8  1  0  0  0
  7 13  2  0  0  0
  8  9  1  0  0  0
  8 15  1  0  0  0
  9 10  2  0  0  0
  9 17  1  0  0  0
 10 18  1  0  0  0
 14 19  1  0  0  0
 14 20  1  0  0  0
 14 21  1  0  0  0
 15 22  1  0  0  0
 15 23  1  0  0  0
 15 24  1  0  0  0
M  END
> <s_m_entry_name>
Schrodinger_fragment_524

> <i_m_number_of_atoms>
24

> <r_m_molecular_weight>
207.19038

> <s_m_molecular_formula>
C9H9N3O3

> <r_epik_Ionization_Penalty>
  0.0171

> <r_epik_Ionization_Penalty_Charging>
  0.0171

> <r_epik_Ionization_Penalty_Neutral>
  0.0000

> <r_epik_State_Penalty>
  0.0171

> <i_epik_Tot_Q>
0

> <r_epik_Metal_State_Penalty>
  2.0195

> <b_epik_Metal_Only>
0

> <s_m_entry_id>
5010

> <s_canvas_Unique_SMILES_Stereo>
O=c1n(C)c(=O)[nH]c(c12)c(=O)n(C)cc2

$$$$
Schrodinger_fragment_420_a
                    3D
 Structure written by MMmdl.
 23 24  0  0  1  0            999 V2000
    1.4493   -2.2298    0.0136 N   0  0  0  0  0  0
    1.4750   -3.6473   -0.1281 C   0  0  0  0  0  0
    2.5947   -4.2813   -0.1524 N   0  0  0  0  0  0
    3.8176   -3.6046   -0.0413 C   0  0  0  0  0  0
    3.8484   -2.2549    0.0956 C   0  0  0  0  0  0
    2.5976   -1.4922    0.1283 C   0  0  0  0  0  0
    5.0724   -4.3841   -0.0755 C   0  0  0  0  0  0
    6.2317   -3.6681    0.0374 N   0  0  0  0  0  0
    6.2477   -2.2693    0.1787 C   0  0  0  0  0  0
    5.1133   -1.5542    0.2107 C   0  0  0  0  0  0
    0.3385   -4.1302   -0.2167 O   0  5  0  0  0  0
    2.5762   -0.2611    0.2514 O   0  0  0  0  0  0
    5.0874   -5.6165   -0.1989 O   0  0  0  0  0  0
    0.1413   -1.5235    0.0386 C   0  0  0  0  0  0
    7.5228   -4.3614    0.0131 C   0  0  0  0  0  0
    7.2278   -1.8202    0.2584 H   0  0  0  0  0  0
    5.1474   -0.4784    0.3201 H   0  0  0  0  0  0
    0.2028   -0.4407    0.1497 H   0  0  0  0  0  0
   -0.4698   -1.8782    0.8701 H   0  0  0  0  0  0
   -0.4079   -1.7013   -0.8874 H   0  0  0  0  0  0
    8.3710   -3.6838    0.1112 H   0  0  0  0  0  0
    7.6459   -4.9046   -0.9248 H   0  0  0  0  0  0
    7.5840   -5.0812    0.8305 H   0  0  0  0  0  0
  1  2  1  0  0  0
  1  6  1  0  0  0
  1 14  1  0  0  0
  2  3  2  0  0  0
  2 11  1  0  0  0
  3  4  1  0  0  0
  4  5  2  0  0  0
  4  7  1  0  0  0
  5  6  1  0  0  0
  5 10  1  0  0  0
  6 12  2  0  0  0
  7  8  1  0  0  0
  7 13  2  0  0  0
  8  9  1  0  0  0
  8 15  1  0  0  0
  9 10  2  0  0  0
  9 16  1  0  0  0
 10 17  1  0  0  0
 14 18  1  0  0  0
 14 19  1  0  0  0
 14 20  1  0  0  0
 15 21  1  0  0  0
 15 22  1  0  0  0
 15 23  1  0  0  0
M  CHG  1  11  -1
M  END
> <s_m_entry_name>
Schrodinger_fragment_524

> <i_m_number_of_atoms>
24

> <r_m_molecular_weight>
207.19038

> <s_m_molecular_formula>
C9H9N3O3

> <r_epik_Ionization_Penalty>
  2.1102

> <r_epik_Ionization_Penalty_Charging>
  0.0000

> <r_epik_Ionization_Penalty_Neutral>
  2.1102

> <r_epik_State_Penalty>
  2.1102

> <i_epik_Tot_Q>
-1

> <r_epik_Metal_State_Penalty>
  0.0199

> <b_epik_Metal_Only>
0

> <s_m_entry_id>
5011

> <s_canvas_Unique_SMILES_Stereo>
O=c1n(C)c([O-])nc(c12)c(=O)n(C)cc2

$$$$
Schrodinger_fragment_421
                    3D
 Structure written by MMmdl.
 24 25  0  0  1  0            999 V2000
    1.4742   -2.2696    0.0396 N   0  0  0  0  0  0
    1.3974   -3.6478    0.0255 C   0  0  0  0  0  0
    2.6119   -4.3739    0.0505 N   0  0  0  0  0  0
    3.8430   -3.6757    0.0310 C   0  0  0  0  0  0
    3.8719   -2.3050    0.0423 C   0  0  0  0  0  0
    2.6377   -1.5221    0.0578 C   0  0  0  0  0  0
    5.1439   -4.4092   -0.0293 C   0  0  0  0  0  0
    6.2822   -3.6507   -0.0160 N   0  0  0  0  0  0
    6.2666   -2.2512    0.0104 C   0  0  0  0  0  0
    5.1183   -1.5686    0.0341 C   0  0  0  0  0  0
    0.2819   -4.1686   -0.0029 O   0  0  0  0  0  0
    2.5578   -0.2917    0.0787 O   0  0  0  0  0  0
    5.2523   -5.6402   -0.1001 O   0  0  0  0  0  0
    7.5971   -4.3013   -0.0517 C   0  0  0  0  0  0
    2.4771   -5.8202    0.1197 C   0  0  0  0  0  0
    0.6012   -1.7613    0.0341 H   0  0  0  0  0  0
    7.2352   -1.7707    0.0043 H   0  0  0  0  0  0
    5.1301   -0.4870    0.0513 H   0  0  0  0  0  0
    8.4253   -3.5956    0.0151 H   0  0  0  0  0  0
    7.7199   -4.8609   -0.9800 H   0  0  0  0  0  0
    7.7029   -4.9998    0.7797 H   0  0  0  0  0  0
    3.0684   -6.1587    0.9710 H   0  0  0  0  0  0
    2.8482   -6.2224   -0.8237 H   0  0  0  0  0  0
    1.4480   -6.1409    0.2793 H   0  0  0  0  0  0
  1  2  1  0  0  0
  1  6  1  0  0  0
  1 16  1  0  0  0
  2  3  1  0  0  0
  2 11  2  0  0  0
  3  4  1  0  0  0
  3 15  1  0  0  0
  4  5  2  0  0  0
  4  7  1  0  0  0
  5  6  1  0  0  0
  5 10  1  0  0  0
  6 12  2  0  0  0
  7  8  1  0  0  0
  7 13  2  0  0  0
  8  9  1  0  0  0
  8 14  1  0  0  0
  9 10  2  0  0  0
  9 17  1  0  0  0
 10 18  1  0  0  0
 14 19  1  0  0  0
 14 20  1  0  0  0
 14 21  1  0  0  0
 15 22  1  0  0  0
 15 23  1  0  0  0
 15 24  1  0  0  0
M  END
> <s_m_entry_name>
Schrodinger_fragment_525

> <i_m_number_of_atoms>
24

> <r_m_molecular_weight>
207.19038

> <s_m_molecular_formula>
C9H9N3O3

> <r_epik_Ionization_Penalty>
  0.0030

> <r_epik_Ionization_Penalty_Charging>
  0.0030

> <r_epik_Ionization_Penalty_Neutral>
  0.0000

> <r_epik_State_Penalty>
  0.0000

> <i_epik_Tot_Q>
0

> <r_epik_Metal_State_Penalty>
  1.0659

> <b_epik_Metal_Only>
0

> <s_m_entry_id>
5012

> <s_canvas_Unique_SMILES_Stereo>
O=c1[nH]c(=O)n(C)c(c12)c(=O)n(C)cc2

$$$$
Schrodinger_fragment_421_a
                    3D
 Structure written by MMmdl.
 23 24  0  0  1  0            999 V2000
    1.4613   -2.2574    0.0827 N   0  5  0  0  0  0
    1.4148   -3.6105    0.0790 C   0  0  0  0  0  0
    2.5704   -4.3360    0.0626 N   0  0  0  0  0  0
    3.8435   -3.6655    0.0373 C   0  0  0  0  0  0
    3.8733   -2.3014    0.0420 C   0  0  0  0  0  0
    2.6166   -1.5597    0.0688 C   0  0  0  0  0  0
    5.1407   -4.4033    0.0017 C   0  0  0  0  0  0
    6.2811   -3.6463   -0.0142 N   0  0  0  0  0  0
    6.2683   -2.2456   -0.0063 C   0  0  0  0  0  0
    5.1199   -1.5620    0.0199 C   0  0  0  0  0  0
    0.3227   -4.1819    0.0915 O   0  0  0  0  0  0
    2.6007   -0.3245    0.0775 O   0  0  0  0  0  0
    5.2485   -5.6354   -0.0160 O   0  0  0  0  0  0
    7.5945   -4.3001   -0.0455 C   0  0  0  0  0  0
    2.4818   -5.8137    0.0750 C   0  0  0  0  0  0
    7.2375   -1.7667   -0.0238 H   0  0  0  0  0  0
    5.1290   -0.4802    0.0252 H   0  0  0  0  0  0
    8.4244   -3.5933   -0.0412 H   0  0  0  0  0  0
    7.6943   -4.9123   -0.9429 H   0  0  0  0  0  0
    7.7188   -4.9500    0.8219 H   0  0  0  0  0  0
    2.9954   -6.2197    0.9469 H   0  0  0  0  0  0
    2.9295   -6.2301   -0.8279 H   0  0  0  0  0  0
    1.4731   -6.2256    0.1174 H   0  0  0  0  0  0
  1  2  1  0  0  0
  1  6  1  0  0  0
  2  3  1  0  0  0
  2 11  2  0  0  0
  3  4  1  0  0  0
  3 15  1  0  0  0
  4  5  2  0  0  0
  4  7  1  0  0  0
  5  6  1  0  0  0
  5 10  1  0  0  0
  6 12  2  0  0  0
  7  8  1  0  0  0
  7 13  2  0  0  0
  8  9  1  0  0  0
  8 14  1  0  0  0
  9 10  2  0  0  0
  9 16  1  0  0  0
 10 17  1  0  0  0
 14 18  1  0  0  0
 14 19  1  0  0  0
 14 20  1  0  0  0
 15 21  1  0  0  0
 15 22  1  0  0  0
 15 23  1  0  0  0
M  CHG  1   1  -1
M  END
> <s_m_entry_name>
Schrodinger_fragment_525

> <i_m_number_of_atoms>
24

> <r_m_molecular_weight>
207.19038

> <s_m_molecular_formula>
C9H9N3O3

> <r_epik_Ionization_Penalty>
  3.1369

> <r_epik_Ionization_Penalty_Charging>
  0.0000

> <r_epik_Ionization_Penalty_Neutral>
  3.1369

> <r_epik_State_Penalty>
  3.1340

> <i_epik_Tot_Q>
-1

> <r_epik_Metal_State_Penalty>
  0.1072

> <b_epik_Metal_Only>
1

> <s_m_entry_id>
5013

> <s_canvas_Unique_SMILES_Stereo>
O=c1[n-]c(=O)n(C)c(c12)c(=O)n(C)cc2

$$$$
Schrodinger_fragment_422
                    3D
 Structure written by MMmdl.
 27 28  0  0  1  0            999 V2000
    1.4459   -2.2339    0.0505 N   0  0  0  0  0  0
    1.3862   -3.6329   -0.0370 C   0  0  0  0  0  0
    2.6023   -4.3524    0.0285 N   0  0  0  0  0  0
    3.8309   -3.6590    0.0277 C   0  0  0  0  0  0
    3.8654   -2.2926    0.1035 C   0  0  0  0  0  0
    2.6396   -1.4951    0.1518 C   0  0  0  0  0  0
    5.1236   -4.3945   -0.1217 C   0  0  0  0  0  0
    6.2689   -3.6515   -0.0481 N   0  0  0  0  0  0
    6.2643   -2.2570    0.0656 C   0  0  0  0  0  0
    5.1212   -1.5685    0.1300 C   0  0  0  0  0  0
    0.2946   -4.2012   -0.1517 O   0  0  0  0  0  0
    2.6271   -0.2631    0.2599 O   0  0  0  0  0  0
    5.2163   -5.6114   -0.3285 O   0  0  0  0  0  0
    7.5779   -4.3085   -0.1369 C   0  0  0  0  0  0
    2.4641   -5.7959    0.1523 C   0  0  0  0  0  0
    0.1743   -1.5321    0.0369 C   0  0  0  0  0  0
    7.2367   -1.7846    0.0837 H   0  0  0  0  0  0
    5.1466   -0.4899    0.2108 H   0  0  0  0  0  0
    8.4096   -3.6265    0.0408 H   0  0  0  0  0  0
    7.7169   -4.7454   -1.1266 H   0  0  0  0  0  0
    7.6593   -5.1092    0.5999 H   0  0  0  0  0  0
    3.1738   -6.1325    0.9079 H   0  0  0  0  0  0
    2.6711   -6.2263   -0.8284 H   0  0  0  0  0  0
    1.4738   -6.0848    0.5058 H   0  0  0  0  0  0
    0.3074   -0.4523    0.0893 H   0  0  0  0  0  0
   -0.3941   -1.8759    0.9030 H   0  0  0  0  0  0
   -0.3302   -1.7905   -0.8960 H   0  0  0  0  0  0
  1  2  1  0  0  0
  1  6  1  0  0  0
  1 16  1  0  0  0
  2  3  1  0  0  0
  2 11  2  0  0  0
  3  4  1  0  0  0
  3 15  1  0  0  0
  4  5  2  0  0  0
  4  7  1  0  0  0
  5  6  1  0  0  0
  5 10  1  0  0  0
  6 12  2  0  0  0
  7  8  1  0  0  0
  7 13  2  0  0  0
  8  9  1  0  0  0
  8 14  1  0  0  0
  9 10  2  0  0  0
  9 17  1  0  0  0
 10 18  1  0  0  0
 14 19  1  0  0  0
 14 20  1  0  0  0
 14 21  1  0  0  0
 15 22  1  0  0  0
 15 23  1  0  0  0
 15 24  1  0  0  0
 16 25  1  0  0  0
 16 26  1  0  0  0
 16 27  1  0  0  0
M  END
> <s_m_entry_name>
Schrodinger_fragment_526

> <i_m_number_of_atoms>
27

> <r_m_molecular_weight>
221.21747

> <s_m_molecular_formula>
C10H11N3O3

> <r_epik_Ionization_Penalty>
  0.0000

> <r_epik_Ionization_Penalty_Charging>
  0.0000

> <r_epik_Ionization_Penalty_Neutral>
  0.0000

> <r_epik_State_Penalty>
  0.0000

> <i_epik_Tot_Q>
0

> <r_epik_Metal_State_Penalty>
  0.0000

> <b_epik_Metal_Only>
0

> <s_m_entry_id>
5014

> <s_canvas_Unique_SMILES_Stereo>
O=c1n(C)c(=O)n(C)c(c12)c(=O)n(C)cc2

$$$$
Schrodinger_fragment_423
                    3D
 Structure written by MMmdl.
 15 16  0  0  1  0            999 V2000
    3.8990    2.7475   -0.0344 C   0  0  0  0  0  0
    3.9015    1.3337    0.0743 C   0  0  0  0  0  0
    5.0712    0.6517    0.1638 N   0  0  0  0  0  0
    6.2173    1.3750    0.1446 C   0  0  0  0  0  0
    6.2018    2.7818    0.0360 C   0  0  0  0  0  0
    5.0430    3.4756   -0.0540 N   0  0  0  0  0  0
    2.6126    3.4531   -0.1294 C   0  0  0  0  0  0
    1.4726    2.8957   -0.1227 N   0  0  0  0  0  0
    1.2756    1.2456   -0.0022 S   0  0  0  0  0  0
    2.7664    0.6282    0.0926 N   0  5  0  0  0  0
    0.6123    0.7886   -1.2316 O   0  0  0  0  0  0
    0.5339    0.9784    1.2384 O   0  0  0  0  0  0
    7.1482    0.8320    0.2159 H   0  0  0  0  0  0
    7.1216    3.3483    0.0217 H   0  0  0  0  0  0
    2.6697    4.5410   -0.2112 H   0  0  0  0  0  0
  1  2  2  0  0  0
  1  6  1  0  0  0
  1  7  1  0  0  0
  2  3  1  0  0  0
  2 10  1  0  0  0
  3  4  2  0  0  0
  4  5  1  0  0  0
  4 13  1  0  0  0
  5  6  2  0  0  0
  5 14  1  0  0  0
  7  8  2  0  0  0
  7 15  1  0  0  0
  8  9  1  0  0  0
  9 10  1  0  0  0
  9 11  2  0  0  0
  9 12  2  0  0  0
M  CHG  1  10  -1
M  END
> <s_m_entry_name>
Schrodinger_fragment_527

> <i_m_number_of_atoms>
16

> <r_m_molecular_weight>
184.17723

> <s_m_molecular_formula>
C5H4N4O2S1

> <r_epik_Ionization_Penalty>
  0.0001

> <r_epik_Ionization_Penalty_Charging>
  0.0001

> <r_epik_Ionization_Penalty_Neutral>
  0.0000

> <r_epik_State_Penalty>
  0.0000

> <i_epik_Tot_Q>
-1

> <r_epik_Metal_State_Penalty>
  0.0000

> <b_epik_Metal_Only>
0

> <s_m_entry_id>
5015

> <s_canvas_Unique_SMILES_Stereo>
n1ccnc(c12)[N-]S(=O)(=O)N=C2

$$$$
Schrodinger_fragment_424
                    3D
 Structure written by MMmdl.
 19 20  0  0  1  0            999 V2000
    4.0720   -0.8780   -0.0285 C   0  0  0  0  0  0
    4.1008   -2.2969    0.0349 C   0  0  0  0  0  0
    5.2793   -2.9776    0.0890 N   0  0  0  0  0  0
    6.4142   -2.2400    0.0794 C   0  0  0  0  0  0
    6.3821   -0.8309    0.0163 C   0  0  0  0  0  0
    5.2155   -0.1458   -0.0377 N   0  0  0  0  0  0
    2.7942   -0.1378   -0.0873 C   0  0  0  0  0  0
    1.6234   -0.6256   -0.0894 N   0  0  0  0  0  0
    1.3839   -2.2684   -0.0213 S   0  0  0  0  0  0
    2.9519   -3.0063    0.0430 N   0  0  0  0  0  0
    0.7940   -2.7373   -1.2857 O   0  0  0  0  0  0
    0.7430   -2.6245    1.2551 O   0  0  0  0  0  0
    2.9615   -4.4676    0.1079 C   0  0  0  0  0  0
    7.3524   -2.7736    0.1221 H   0  0  0  0  0  0
    7.2959   -0.2546    0.0093 H   0  0  0  0  0  0
    2.8956    0.9494   -0.1335 H   0  0  0  0  0  0
    1.9498   -4.8752    0.1054 H   0  0  0  0  0  0
    3.4499   -4.8138    1.0193 H   0  0  0  0  0  0
    3.4857   -4.8920   -0.7490 H   0  0  0  0  0  0
  1  2  2  0  0  0
  1  6  1  0  0  0
  1  7  1  0  0  0
  2  3  1  0  0  0
  2 10  1  0  0  0
  3  4  2  0  0  0
  4  5  1  0  0  0
  4 14  1  0  0  0
  5  6  2  0  0  0
  5 15  1  0  0  0
  7  8  2  0  0  0
  7 16  1  0  0  0
  8  9  1  0  0  0
  9 10  1  0  0  0
  9 11  2  0  0  0
  9 12  2  0  0  0
 10 13  1  0  0  0
 13 17  1  0  0  0
 13 18  1  0  0  0
 13 19  1  0  0  0
M  END
> <s_m_entry_name>
Schrodinger_fragment_528

> <i_m_number_of_atoms>
19

> <r_m_molecular_weight>
198.20432

> <s_m_molecular_formula>
C6H6N4O2S1

> <r_epik_Ionization_Penalty>
  0.0000

> <r_epik_Ionization_Penalty_Charging>
  0.0000

> <r_epik_Ionization_Penalty_Neutral>
  0.0000

> <r_epik_State_Penalty>
  0.0000

> <i_epik_Tot_Q>
0

> <r_epik_Metal_State_Penalty>
  0.0000

> <b_epik_Metal_Only>
0

> <s_m_entry_id>
5016

> <s_canvas_Unique_SMILES_Stereo>
C1=NS(=O)(=O)N(C)c(c12)nccn2

$$$$
Schrodinger_fragment_425
                    3D
 Structure written by MMmdl.
 23 24  0  0  1  0            999 V2000
    5.2943   -5.0113    0.0428 C   0  0  0  0  0  0
    5.2794   -3.5917    0.2128 C   0  0  0  0  0  0
    4.0378   -2.9173    0.1426 C   0  0  0  0  0  0
    2.8379   -3.6057   -0.1066 C   0  0  0  0  0  0
    2.8593   -4.9965   -0.2879 C   0  0  0  0  0  0
    4.0799   -5.6880   -0.2121 C   0  0  0  0  0  0
    6.5363   -5.8970    0.1046 C   0  0  0  0  0  0
    7.7553   -5.3084    0.8121 C   0  0  0  0  0  0
    8.3881   -4.2283   -0.0494 C   0  0  0  0  0  0
    7.7856   -3.0430   -0.0880 N   0  0  0  0  0  0
    6.4952   -2.6949    0.4977 C   0  0  0  0  0  0
    9.4379   -4.4424   -0.6556 O   0  0  0  0  0  0
    3.9959   -1.8452    0.2808 H   0  0  0  0  0  0
    1.9023   -3.0657   -0.1589 H   0  0  0  0  0  0
    1.9409   -5.5339   -0.4820 H   0  0  0  0  0  0
    4.0782   -6.7609   -0.3516 H   0  0  0  0  0  0
    6.2697   -6.8233    0.6153 H   0  0  0  0  0  0
    6.7996   -6.1890   -0.9136 H   0  0  0  0  0  0
    7.5024   -4.9321    1.8038 H   0  0  0  0  0  0
    8.4951   -6.0948    0.9660 H   0  0  0  0  0  0
    8.2337   -2.3186   -0.6328 H   0  0  0  0  0  0
    6.2737   -1.6785    0.1692 H   0  0  0  0  0  0
    6.6159   -2.6293    1.5801 H   0  0  0  0  0  0
  1  2  2  0  0  0
  1  6  1  0  0  0
  1  7  1  0  0  0
  2  3  1  0  0  0
  2 11  1  0  0  0
  3  4  2  0  0  0
  3 13  1  0  0  0
  4  5  1  0  0  0
  4 14  1  0  0  0
  5  6  2  0  0  0
  5 15  1  0  0  0
  6 16  1  0  0  0
  7  8  1  0  0  0
  7 17  1  0  0  0
  7 18  1  0  0  0
  8  9  1  0  0  0
  8 19  1  0  0  0
  8 20  1  0  0  0
  9 10  1  0  0  0
  9 12  2  0  0  0
 10 11  1  0  0  0
 10 21  1  0  0  0
 11 22  1  0  0  0
 11 23  1  0  0  0
M  END
> <s_m_entry_name>
Schrodinger_fragment_529

> <i_m_number_of_atoms>
23

> <r_m_molecular_weight>
161.20527

> <s_m_molecular_formula>
C10H11N1O1

> <r_epik_Ionization_Penalty>
  0.0000

> <r_epik_Ionization_Penalty_Charging>
  0.0000

> <r_epik_Ionization_Penalty_Neutral>
  0.0000

> <r_epik_State_Penalty>
  0.0000

> <i_epik_Tot_Q>
0

> <r_epik_Metal_State_Penalty>
  0.0000

> <b_epik_Metal_Only>
0

> <s_m_entry_id>
5017

> <s_canvas_Unique_SMILES_Stereo>
c1cccc(c12)CNC(=O)CC2

$$$$
Schrodinger_fragment_426
                    3D
 Structure written by MMmdl.
 29 30  0  0  1  0            999 V2000
    0.1091    3.8730    0.2212 C   0  0  0  0  0  0
   -0.0378    2.3574    0.2823 C   0  0  0  0  0  0
    1.2860    1.6883    0.6782 C   0  0  0  0  0  0
    2.4613    2.1346   -0.1041 N   0  0  0  0  0  0
    2.5524    3.5665   -0.4828 C   0  0  1  0  0  0
    1.1855    4.2106   -0.8046 C   0  0  0  0  0  0
    3.5241    1.2975   -0.2202 C   0  0  0  0  0  0
    4.8903    1.8671   -0.6257 C   0  0  0  0  0  0
    5.4575    2.8322    0.4366 C   0  0  0  0  0  0
    4.8799    4.2575    0.3675 C   0  0  0  0  0  0
    3.3570    4.3565    0.5733 C   0  0  0  0  0  0
    3.4623    0.0935    0.0504 O   0  0  0  0  0  0
   -0.8388    4.3333   -0.0608 H   0  0  0  0  0  0
    0.3760    4.2721    1.2009 H   0  0  0  0  0  0
   -0.8169    2.0857    0.9958 H   0  0  0  0  0  0
   -0.3660    1.9781   -0.6869 H   0  0  0  0  0  0
    1.4944    1.8956    1.7289 H   0  0  0  0  0  0
    1.1389    0.6090    0.6095 H   0  0  0  0  0  0
    3.0891    3.6450   -1.4293 H   0  0  0  0  0  0
    0.8534    3.8600   -1.7834 H   0  0  0  0  0  0
    1.2842    5.2924   -0.9050 H   0  0  0  0  0  0
    5.5786    1.0275   -0.7305 H   0  0  0  0  0  0
    4.8493    2.3268   -1.6129 H   0  0  0  0  0  0
    5.3041    2.4210    1.4361 H   0  0  0  0  0  0
    6.5390    2.8917    0.3089 H   0  0  0  0  0  0
    5.3745    4.8724    1.1209 H   0  0  0  0  0  0
    5.1430    4.7049   -0.5923 H   0  0  0  0  0  0
    3.0912    5.4131    0.5210 H   0  0  0  0  0  0
    3.0840    4.0375    1.5804 H   0  0  0  0  0  0
  1  2  1  0  0  0
  1  6  1  0  0  0
  1 13  1  0  0  0
  1 14  1  0  0  0
  2  3  1  0  0  0
  2 15  1  0  0  0
  2 16  1  0  0  0
  3  4  1  0  0  0
  3 17  1  0  0  0
  3 18  1  0  0  0
  4  5  1  0  0  0
  4  7  1  0  0  0
  5  6  1  0  0  0
  5 11  1  0  0  0
  5 19  1  0  0  0
  6 20  1  0  0  0
  6 21  1  0  0  0
  7  8  1  0  0  0
  7 12  2  0  0  0
  8  9  1  0  0  0
  8 22  1  0  0  0
  8 23  1  0  0  0
  9 10  1  0  0  0
  9 24  1  0  0  0
  9 25  1  0  0  0
 10 11  1  0  0  0
 10 26  1  0  0  0
 10 27  1  0  0  0
 11 28  1  0  0  0
 11 29  1  0  0  0
M  END
> <s_m_entry_name>
Schrodinger_fragment_530

> <i_m_number_of_atoms>
29

> <r_m_molecular_weight>
167.25309

> <s_m_molecular_formula>
C10H17N1O1

> <r_epik_Ionization_Penalty>
  0.0000

> <r_epik_Ionization_Penalty_Charging>
  0.0000

> <r_epik_Ionization_Penalty_Neutral>
  0.0000

> <r_epik_State_Penalty>
  0.0000

> <i_epik_Tot_Q>
0

> <r_epik_Metal_State_Penalty>
  0.0000

> <b_epik_Metal_Only>
0

> <s_m_entry_id>
5018

> <s_canvas_Unique_SMILES_Stereo>
C1CCCN([C@@H]12)C(=O)CCCC2

$$$$
Schrodinger_fragment_427
                    3D
 Structure written by MMmdl.
 29 30  0  0  1  0            999 V2000
    0.4240    3.5695   -1.0929 C   0  0  0  0  0  0
   -0.0622    2.4196   -0.2018 C   0  0  0  0  0  0
    1.0826    1.4203    0.0818 C   0  0  0  0  0  0
    2.4145    2.0564    0.2248 N   0  0  0  0  0  0
    2.3355    3.4830    0.6295 C   0  0  2  0  0  0
    1.5908    4.3278   -0.4339 C   0  0  0  0  0  0
    3.5221    1.3021   -0.0216 C   0  0  0  0  0  0
    4.9291    1.9160   -0.0937 C   0  0  0  0  0  0
    4.9929    3.2685   -0.8184 C   0  0  0  0  0  0
    4.7021    4.4496    0.1124 C   0  0  0  0  0  0
    3.6189    4.1554    1.1615 C   0  0  0  0  0  0
    3.4436    0.0847   -0.2197 O   0  0  0  0  0  0
    0.7534    3.1582   -2.0484 H   0  0  0  0  0  0
   -0.3928    4.2554   -1.3217 H   0  0  0  0  0  0
   -0.4475    2.8235    0.7358 H   0  0  0  0  0  0
   -0.9006    1.9020   -0.6701 H   0  0  0  0  0  0
    0.8597    0.8318    0.9729 H   0  0  0  0  0  0
    1.0997    0.7163   -0.7529 H   0  0  0  0  0  0
    1.6887    3.4645    1.5091 H   0  0  0  0  0  0
    2.2706    4.6635   -1.2170 H   0  0  0  0  0  0
    1.2148    5.2349    0.0418 H   0  0  0  0  0  0
    5.3642    1.9713    0.9042 H   0  0  0  0  0  0
    5.5576    1.2137   -0.6428 H   0  0  0  0  0  0
    5.9779    3.4020   -1.2672 H   0  0  0  0  0  0
    4.2907    3.2718   -1.6541 H   0  0  0  0  0  0
    5.6174    4.7304    0.6356 H   0  0  0  0  0  0
    4.4277    5.3208   -0.4840 H   0  0  0  0  0  0
    3.3487    5.0979    1.6404 H   0  0  0  0  0  0
    4.0342    3.5489    1.9677 H   0  0  0  0  0  0
  1  2  1  0  0  0
  1  6  1  0  0  0
  1 13  1  0  0  0
  1 14  1  0  0  0
  2  3  1  0  0  0
  2 15  1  0  0  0
  2 16  1  0  0  0
  3  4  1  0  0  0
  3 17  1  0  0  0
  3 18  1  0  0  0
  4  5  1  0  0  0
  4  7  1  0  0  0
  5  6  1  0  0  0
  5 11  1  0  0  0
  5 19  1  0  0  0
  6 20  1  0  0  0
  6 21  1  0  0  0
  7  8  1  0  0  0
  7 12  2  0  0  0
  8  9  1  0  0  0
  8 22  1  0  0  0
  8 23  1  0  0  0
  9 10  1  0  0  0
  9 24  1  0  0  0
  9 25  1  0  0  0
 10 11  1  0  0  0
 10 26  1  0  0  0
 10 27  1  0  0  0
 11 28  1  0  0  0
 11 29  1  0  0  0
M  END
> <s_m_entry_name>
Schrodinger_fragment_531

> <i_m_number_of_atoms>
29

> <r_m_molecular_weight>
167.25309

> <s_m_molecular_formula>
C10H17N1O1

> <r_epik_Ionization_Penalty>
  0.0000

> <r_epik_Ionization_Penalty_Charging>
  0.0000

> <r_epik_Ionization_Penalty_Neutral>
  0.0000

> <r_epik_State_Penalty>
  0.0000

> <i_epik_Tot_Q>
0

> <r_epik_Metal_State_Penalty>
  0.0000

> <b_epik_Metal_Only>
0

> <s_m_entry_id>
5019

> <s_canvas_Unique_SMILES_Stereo>
C1CCCN([C@H]12)C(=O)CCCC2

$$$$
Schrodinger_fragment_428
                    3D
 Structure written by MMmdl.
 23 24  0  0  1  0            999 V2000
    5.2557   -5.7593    0.0871 C   0  0  0  0  0  0
    5.3080   -4.3325    0.1808 C   0  0  0  0  0  0
    4.1046   -3.5959    0.0988 C   0  0  0  0  0  0
    2.8676   -4.2323   -0.0995 C   0  0  0  0  0  0
    2.8156   -5.6295   -0.2104 C   0  0  0  0  0  0
    4.0007   -6.3785   -0.1145 C   0  0  0  0  0  0
    6.4287   -6.7349    0.1952 C   0  0  0  0  0  0
    7.8363   -6.1836    0.4214 C   0  0  0  0  0  0
    8.1805   -5.0435   -0.5352 C   0  0  0  0  0  0
    7.7372   -3.7142    0.0529 C   0  0  0  0  0  0
    6.4578   -3.5250    0.3931 N   0  0  0  0  0  0
    8.5651   -2.8141    0.1995 O   0  0  0  0  0  0
    4.1186   -2.5174    0.1799 H   0  0  0  0  0  0
    1.9605   -3.6474   -0.1661 H   0  0  0  0  0  0
    1.8679   -6.1280   -0.3629 H   0  0  0  0  0  0
    3.9399   -7.4557   -0.1922 H   0  0  0  0  0  0
    6.2050   -7.4490    0.9893 H   0  0  0  0  0  0
    6.4401   -7.3179   -0.7271 H   0  0  0  0  0  0
    7.9394   -5.8575    1.4584 H   0  0  0  0  0  0
    8.5562   -6.9936    0.2998 H   0  0  0  0  0  0
    9.2605   -5.0102   -0.6844 H   0  0  0  0  0  0
    7.7361   -5.1912   -1.5203 H   0  0  0  0  0  0
    6.2669   -2.5953    0.7387 H   0  0  0  0  0  0
  1  2  2  0  0  0
  1  6  1  0  0  0
  1  7  1  0  0  0
  2  3  1  0  0  0
  2 11  1  0  0  0
  3  4  2  0  0  0
  3 13  1  0  0  0
  4  5  1  0  0  0
  4 14  1  0  0  0
  5  6  2  0  0  0
  5 15  1  0  0  0
  6 16  1  0  0  0
  7  8  1  0  0  0
  7 17  1  0  0  0
  7 18  1  0  0  0
  8  9  1  0  0  0
  8 19  1  0  0  0
  8 20  1  0  0  0
  9 10  1  0  0  0
  9 21  1  0  0  0
  9 22  1  0  0  0
 10 11  1  0  0  0
 10 12  2  0  0  0
 11 23  1  0  0  0
M  END
> <s_m_entry_name>
Schrodinger_fragment_532

> <i_m_number_of_atoms>
23

> <r_m_molecular_weight>
161.20527

> <s_m_molecular_formula>
C10H11N1O1

> <r_epik_Ionization_Penalty>
  0.0000

> <r_epik_Ionization_Penalty_Charging>
  0.0000

> <r_epik_Ionization_Penalty_Neutral>
  0.0000

> <r_epik_State_Penalty>
  0.0000

> <i_epik_Tot_Q>
0

> <r_epik_Metal_State_Penalty>
  0.0000

> <b_epik_Metal_Only>
0

> <s_m_entry_id>
5020

> <s_canvas_Unique_SMILES_Stereo>
c1cccc(c12)NC(=O)CCC2

$$$$
Schrodinger_fragment_429
                    3D
 Structure written by MMmdl.
 24 25  0  0  1  0            999 V2000
   -0.0029    2.2989    0.0811 C   0  0  0  0  0  0
    0.0143    0.9169   -0.1744 C   0  0  0  0  0  0
    1.2405    0.2303   -0.2400 C   0  0  0  0  0  0
    2.4602    0.9126   -0.0459 C   0  0  0  0  0  0
    2.4472    2.3139    0.2038 C   0  0  0  0  0  0
    1.2082    2.9913    0.2657 C   0  0  0  0  0  0
    3.5956    0.1893   -0.1263 N   0  0  0  0  0  0
    4.8707    0.4889    0.5190 C   0  0  0  0  0  0
    5.6425    1.6472   -0.1432 C   0  0  0  0  0  0
    3.7240    3.1359    0.3804 C   0  0  0  0  0  0
   -0.9444    2.8292    0.1314 H   0  0  0  0  0  0
   -0.9133    0.3812   -0.3208 H   0  0  0  0  0  0
    1.2297   -0.8329   -0.4376 H   0  0  0  0  0  0
    1.1781    4.0557    0.4546 H   0  0  0  0  0  0
    3.4722   -0.7932   -0.3621 H   0  0  0  0  0  0
    4.6788    0.7244    1.5674 H   0  0  0  0  0  0
    5.4936   -0.4070    0.5281 H   0  0  0  0  0  0
    6.3918    2.0318    0.5500 H   0  0  0  0  0  0
    6.1888    1.2812   -1.0132 H   0  0  0  0  0  0
    3.4952    4.1875    0.2056 H   0  0  0  0  0  0
    4.0873    3.0693    1.4066 H   0  0  0  0  0  0
    4.7614    2.7447   -0.5892 N   0  3  0  0  0  0
    5.3292    3.5443   -0.8119 H   0  0  0  0  0  0
    4.2905    2.4470   -1.4265 H   0  0  0  0  0  0
  1  2  2  0  0  0
  1  6  1  0  0  0
  1 11  1  0  0  0
  2  3  1  0  0  0
  2 12  1  0  0  0
  3  4  2  0  0  0
  3 13  1  0  0  0
  4  5  1  0  0  0
  4  7  1  0  0  0
  5  6  2  0  0  0
  5 10  1  0  0  0
  6 14  1  0  0  0
  7  8  1  0  0  0
  7 15  1  0  0  0
  8  9  1  0  0  0
  8 16  1  0  0  0
  8 17  1  0  0  0
  9 18  1  0  0  0
  9 19  1  0  0  0
  9 22  1  0  0  0
 10 20  1  0  0  0
 10 21  1  0  0  0
 10 22  1  0  0  0
 22 23  1  0  0  0
 22 24  1  0  0  0
M  CHG  1  22   1
M  END
> <s_m_entry_name>
Schrodinger_fragment_533

> <i_m_number_of_atoms>
24

> <r_m_molecular_weight>
149.21736

> <s_m_molecular_formula>
C9H13N2

> <r_epik_Ionization_Penalty>
  0.0002

> <r_epik_Ionization_Penalty_Charging>
  0.0002

> <r_epik_Ionization_Penalty_Neutral>
  0.0000

> <r_epik_State_Penalty>
  0.0000

> <i_epik_Tot_Q>
1

> <r_epik_Metal_State_Penalty>
  0.0000

> <b_epik_Metal_Only>
0

> <s_m_entry_id>
5021

> <s_canvas_Unique_SMILES_Stereo>
c1cccc(c12)NCC[NH2+]C2

$$$$
Schrodinger_fragment_430
                    3D
 Structure written by MMmdl.
 21 22  0  0  1  0            999 V2000
    2.4915    0.9033   -0.1762 C   0  0  0  0  0  0
    2.4889    2.3328   -0.1309 C   0  0  0  0  0  0
    3.6953    0.0998   -0.4394 C   0  0  0  0  0  0
    4.8793    0.4362   -0.0269 N   0  3  0  0  0  0
    5.1930    1.6015    0.8179 C   0  0  0  0  0  0
    4.8927    2.9168    0.0997 C   0  0  0  0  0  0
    3.6399    3.1565   -0.3107 N   0  0  0  0  0  0
    1.2643    3.0130    0.0528 C   0  0  0  0  0  0
    0.0613    2.3022    0.2190 C   0  0  0  0  0  0
    0.0667    0.8966    0.1888 C   0  0  0  0  0  0
    1.2758    0.2051   -0.0146 C   0  0  0  0  0  0
    5.7908    3.7417   -0.0743 O   0  0  0  0  0  0
    3.5610   -0.8205   -0.9966 H   0  0  0  0  0  0
    4.6299    1.5183    1.7488 H   0  0  0  0  0  0
    6.2528    1.5355    1.0678 H   0  0  0  0  0  0
    3.4744    4.0713   -0.7013 H   0  0  0  0  0  0
    1.2403    4.0934    0.0757 H   0  0  0  0  0  0
   -0.8675    2.8374    0.3670 H   0  0  0  0  0  0
   -0.8559    0.3470    0.3126 H   0  0  0  0  0  0
    1.2655   -0.8734   -0.0493 H   0  0  0  0  0  0
    5.6821   -0.1421   -0.2792 H   0  0  0  0  0  0
  1  2  2  0  0  0
  1  3  1  0  0  0
  1 11  1  0  0  0
  2  7  1  0  0  0
  2  8  1  0  0  0
  3  4  2  0  0  0
  3 13  1  0  0  0
  4  5  1  0  0  0
  4 21  1  0  0  0
  5  6  1  0  0  0
  5 14  1  0  0  0
  5 15  1  0  0  0
  6  7  1  0  0  0
  6 12  2  0  0  0
  7 16  1  0  0  0
  8  9  2  0  0  0
  8 17  1  0  0  0
  9 10  1  0  0  0
  9 18  1  0  0  0
 10 11  2  0  0  0
 10 19  1  0  0  0
 11 20  1  0  0  0
M  CHG  1   4   1
M  END
> <s_m_entry_name>
Schrodinger_fragment_534

> <i_m_number_of_atoms>
20

> <r_m_molecular_weight>
160.17691

> <s_m_molecular_formula>
C9H8N2O1

> <r_epik_Ionization_Penalty>
  0.2914

> <r_epik_Ionization_Penalty_Charging>
  0.2914

> <r_epik_Ionization_Penalty_Neutral>
  0.0000

> <r_epik_State_Penalty>
  0.2914

> <i_epik_Tot_Q>
1

> <r_epik_Metal_State_Penalty>
  0.2914

> <b_epik_Metal_Only>
0

> <s_m_entry_id>
5022

> <s_canvas_Unique_SMILES_Stereo>
c1cccc(c12)NC(=O)C[NH+]=C2

$$$$
Schrodinger_fragment_430_a
                    3D
 Structure written by MMmdl.
 20 21  0  0  1  0            999 V2000
    2.5006    0.9254   -0.1490 C   0  0  0  0  0  0
    2.4770    2.3513   -0.0965 C   0  0  0  0  0  0
    3.7304    0.1238   -0.3823 C   0  0  0  0  0  0
    4.9225    0.4099   -0.0309 N   0  0  0  0  0  0
    5.1758    1.5719    0.8020 C   0  0  0  0  0  0
    4.8877    2.8916    0.0696 C   0  0  0  0  0  0
    3.6244    3.1711   -0.2763 N   0  0  0  0  0  0
    1.2475    3.0245    0.0732 C   0  0  0  0  0  0
    0.0476    2.3048    0.2140 C   0  0  0  0  0  0
    0.0648    0.9005    0.1690 C   0  0  0  0  0  0
    1.2826    0.2205   -0.0186 C   0  0  0  0  0  0
    5.8077    3.6725   -0.1756 O   0  0  0  0  0  0
    3.5682   -0.8111   -0.9260 H   0  0  0  0  0  0
    4.5918    1.5366    1.7246 H   0  0  0  0  0  0
    6.2200    1.5677    1.1177 H   0  0  0  0  0  0
    3.4650    4.0956   -0.6506 H   0  0  0  0  0  0
    1.2151    4.1051    0.0999 H   0  0  0  0  0  0
   -0.8870    2.8316    0.3501 H   0  0  0  0  0  0
   -0.8568    0.3436    0.2710 H   0  0  0  0  0  0
    1.2758   -0.8602   -0.0616 H   0  0  0  0  0  0
  1  2  2  0  0  0
  1  3  1  0  0  0
  1 11  1  0  0  0
  2  7  1  0  0  0
  2  8  1  0  0  0
  3  4  2  0  0  0
  3 13  1  0  0  0
  4  5  1  0  0  0
  5  6  1  0  0  0
  5 14  1  0  0  0
  5 15  1  0  0  0
  6  7  1  0  0  0
  6 12  2  0  0  0
  7 16  1  0  0  0
  8  9  2  0  0  0
  8 17  1  0  0  0
  9 10  1  0  0  0
  9 18  1  0  0  0
 10 11  2  0  0  0
 10 19  1  0  0  0
 11 20  1  0  0  0
M  END
> <s_m_entry_name>
Schrodinger_fragment_534

> <i_m_number_of_atoms>
20

> <r_m_molecular_weight>
160.17691

> <s_m_molecular_formula>
C9H8N2O1

> <r_epik_Ionization_Penalty>
  0.5602

> <r_epik_Ionization_Penalty_Charging>
  0.0000

> <r_epik_Ionization_Penalty_Neutral>
  0.5602

> <r_epik_State_Penalty>
  0.5602

> <i_epik_Tot_Q>
0

> <r_epik_Metal_State_Penalty>
  0.5602

> <b_epik_Metal_Only>
0

> <s_m_entry_id>
5023

> <s_canvas_Unique_SMILES_Stereo>
c1cccc(c12)NC(=O)CN=C2

$$$$
Schrodinger_fragment_431
                    3D
 Structure written by MMmdl.
 23 24  0  0  1  0            999 V2000
    2.5378   -3.0162   -0.2336 C   0  0  0  0  0  0
    2.4779   -1.6109    0.0261 C   0  0  0  0  0  0
    3.7923   -3.7463   -0.5479 C   0  0  0  0  0  0
    4.9464   -3.5086   -0.0632 N   0  0  0  0  0  0
    5.0828   -2.4887    0.9617 C   0  0  0  0  0  0
    4.8612   -1.0791    0.3895 C   0  0  0  0  0  0
    3.6243   -0.7420   -0.0586 N   0  0  0  0  0  0
    1.2217   -1.0312    0.3374 C   0  0  0  0  0  0
    0.0498   -1.8072    0.3778 C   0  0  0  0  0  0
    0.1107   -3.1815    0.0993 C   0  0  0  0  0  0
    1.3472   -3.7768   -0.2058 C   0  0  0  0  0  0
    5.8238   -0.3035    0.3637 O   0  0  0  0  0  0
    3.4289    0.6183   -0.5823 C   0  0  0  0  0  0
    3.6862   -4.5677   -1.2621 H   0  0  0  0  0  0
    4.4014   -2.6563    1.7991 H   0  0  0  0  0  0
    6.0848   -2.5409    1.3894 H   0  0  0  0  0  0
    1.1390    0.0247    0.5542 H   0  0  0  0  0  0
   -0.8979   -1.3445    0.6176 H   0  0  0  0  0  0
   -0.7892   -3.7809    0.1239 H   0  0  0  0  0  0
    1.3782   -4.8387   -0.4097 H   0  0  0  0  0  0
    4.2759    0.9533   -1.1833 H   0  0  0  0  0  0
    3.2942    1.3259    0.2365 H   0  0  0  0  0  0
    2.5576    0.6789   -1.2348 H   0  0  0  0  0  0
  1  2  2  0  0  0
  1  3  1  0  0  0
  1 11  1  0  0  0
  2  7  1  0  0  0
  2  8  1  0  0  0
  3  4  2  0  0  0
  3 14  1  0  0  0
  4  5  1  0  0  0
  5  6  1  0  0  0
  5 15  1  0  0  0
  5 16  1  0  0  0
  6  7  1  0  0  0
  6 12  2  0  0  0
  7 13  1  0  0  0
  8  9  2  0  0  0
  8 17  1  0  0  0
  9 10  1  0  0  0
  9 18  1  0  0  0
 10 11  2  0  0  0
 10 19  1  0  0  0
 11 20  1  0  0  0
 13 21  1  0  0  0
 13 22  1  0  0  0
 13 23  1  0  0  0
M  END
> <s_m_entry_name>
Schrodinger_fragment_535

> <i_m_number_of_atoms>
23

> <r_m_molecular_weight>
174.204

> <s_m_molecular_formula>
C10H10N2O1

> <r_epik_Ionization_Penalty>
  0.1358

> <r_epik_Ionization_Penalty_Charging>
  0.0000

> <r_epik_Ionization_Penalty_Neutral>
  0.1358

> <r_epik_State_Penalty>
  0.1358

> <i_epik_Tot_Q>
0

> <r_epik_Metal_State_Penalty>
  0.1358

> <b_epik_Metal_Only>
0

> <s_m_entry_id>
5024

> <s_canvas_Unique_SMILES_Stereo>
C1=NCC(=O)N(C)c(c12)cccc2

$$$$
Schrodinger_fragment_431_a
                    3D
 Structure written by MMmdl.
 24 25  0  0  1  0            999 V2000
    2.5289   -3.0283   -0.2693 C   0  0  0  0  0  0
    2.4869   -1.6213   -0.0033 C   0  0  0  0  0  0
    3.7570   -3.7493   -0.6261 C   0  0  0  0  0  0
    4.8944   -3.4859   -0.0614 N   0  3  0  0  0  0
    5.0908   -2.4659    0.9835 C   0  0  0  0  0  0
    4.8558   -1.0600    0.4284 C   0  0  0  0  0  0
    3.6340   -0.7491   -0.0793 N   0  0  0  0  0  0
    1.2363   -1.0404    0.3306 C   0  0  0  0  0  0
    0.0633   -1.8147    0.3957 C   0  0  0  0  0  0
    0.1148   -3.1914    0.1224 C   0  0  0  0  0  0
    1.3430   -3.7906   -0.2096 C   0  0  0  0  0  0
    5.7908   -0.2521    0.4732 O   0  0  0  0  0  0
    3.4419    0.6100   -0.6113 C   0  0  0  0  0  0
    3.6818   -4.5399   -1.3649 H   0  0  0  0  0  0
    4.4283   -2.6842    1.8225 H   0  0  0  0  0  0
    6.1161   -2.5716    1.3403 H   0  0  0  0  0  0
    1.1612    0.0146    0.5520 H   0  0  0  0  0  0
   -0.8787   -1.3493    0.6549 H   0  0  0  0  0  0
   -0.7844   -3.7896    0.1688 H   0  0  0  0  0  0
    1.3724   -4.8501   -0.4137 H   0  0  0  0  0  0
    4.2950    0.9381   -1.2079 H   0  0  0  0  0  0
    3.3038    1.3240    0.2015 H   0  0  0  0  0  0
    2.5744    0.6693   -1.2692 H   0  0  0  0  0  0
    5.7342   -3.9924   -0.3469 H   0  0  0  0  0  0
  1  2  2  0  0  0
  1  3  1  0  0  0
  1 11  1  0  0  0
  2  7  1  0  0  0
  2  8  1  0  0  0
  3  4  2  0  0  0
  3 14  1  0  0  0
  4  5  1  0  0  0
  4 24  1  0  0  0
  5  6  1  0  0  0
  5 15  1  0  0  0
  5 16  1  0  0  0
  6  7  1  0  0  0
  6 12  2  0  0  0
  7 13  1  0  0  0
  8  9  2  0  0  0
  8 17  1  0  0  0
  9 10  1  0  0  0
  9 18  1  0  0  0
 10 11  2  0  0  0
 10 19  1  0  0  0
 11 20  1  0  0  0
 13 21  1  0  0  0
 13 22  1  0  0  0
 13 23  1  0  0  0
M  CHG  1   4   1
M  END
> <s_m_entry_name>
Schrodinger_fragment_535

> <i_m_number_of_atoms>
23

> <r_m_molecular_weight>
174.204

> <s_m_molecular_formula>
C10H10N2O1

> <r_epik_Ionization_Penalty>
  0.9394

> <r_epik_Ionization_Penalty_Charging>
  0.9394

> <r_epik_Ionization_Penalty_Neutral>
  0.0000

> <r_epik_State_Penalty>
  0.9394

> <i_epik_Tot_Q>
1

> <r_epik_Metal_State_Penalty>
  0.9394

> <b_epik_Metal_Only>
0

> <s_m_entry_id>
5025

> <s_canvas_Unique_SMILES_Stereo>
C1=[NH+]CC(=O)N(C)c(c12)cccc2

$$$$
Schrodinger_fragment_432
                    3D
 Structure written by MMmdl.
 22 23  0  0  1  0            999 V2000
    0.0892    2.3097    0.4322 C   0  0  0  0  0  0
    0.0646    0.9148    0.2732 C   0  0  0  0  0  0
    1.2489    0.2289   -0.0509 C   0  0  0  0  0  0
    2.4731    0.9167   -0.2188 C   0  0  0  0  0  0
    2.4896    2.3341   -0.0700 C   0  0  0  0  0  0
    1.2957    3.0113    0.2603 C   0  0  0  0  0  0
    3.6964    0.0600   -0.5656 C   0  0  0  0  0  0
    4.9488    0.3829    0.1129 N   0  0  0  0  0  0
    5.5400    1.5769    0.1591 C   0  0  0  0  0  0
    4.9192    2.7062   -0.6595 C   0  0  0  0  0  0
    3.5881    3.0978   -0.2249 N   0  0  0  0  0  0
    6.5519    1.7741    0.8302 O   0  0  0  0  0  0
   -0.8168    2.8439    0.6824 H   0  0  0  0  0  0
   -0.8612    0.3700    0.4006 H   0  0  0  0  0  0
    1.2102   -0.8453   -0.1679 H   0  0  0  0  0  0
    1.2884    4.0859    0.3819 H   0  0  0  0  0  0
    3.4815   -0.9890   -0.3587 H   0  0  0  0  0  0
    3.8559    0.1213   -1.6429 H   0  0  0  0  0  0
    5.3766   -0.3644    0.6417 H   0  0  0  0  0  0
    5.5703    3.5803   -0.6062 H   0  0  0  0  0  0
    4.8909    2.4172   -1.7113 H   0  0  0  0  0  0
    3.4874    4.0852   -0.0090 H   0  0  0  0  0  0
  1  2  2  0  0  0
  1  6  1  0  0  0
  1 13  1  0  0  0
  2  3  1  0  0  0
  2 14  1  0  0  0
  3  4  2  0  0  0
  3 15  1  0  0  0
  4  5  1  0  0  0
  4  7  1  0  0  0
  5  6  2  0  0  0
  5 11  1  0  0  0
  6 16  1  0  0  0
  7  8  1  0  0  0
  7 17  1  0  0  0
  7 18  1  0  0  0
  8  9  1  0  0  0
  8 19  1  0  0  0
  9 10  1  0  0  0
  9 12  2  0  0  0
 10 11  1  0  0  0
 10 20  1  0  0  0
 10 21  1  0  0  0
 11 22  1  0  0  0
M  END
> <s_m_entry_name>
Schrodinger_fragment_536

> <i_m_number_of_atoms>
22

> <r_m_molecular_weight>
162.19285

> <s_m_molecular_formula>
C9H10N2O1

> <r_epik_Ionization_Penalty>
  0.2565

> <r_epik_Ionization_Penalty_Charging>
  0.0000

> <r_epik_Ionization_Penalty_Neutral>
  0.2565

> <r_epik_State_Penalty>
  0.2565

> <i_epik_Tot_Q>
0

> <r_epik_Metal_State_Penalty>
  0.2567

> <b_epik_Metal_Only>
0

> <s_m_entry_id>
5026

> <s_canvas_Unique_SMILES_Stereo>
c1cccc(c12)NCC(=O)NC2

$$$$
Schrodinger_fragment_432_a
                    3D
 Structure written by MMmdl.
 23 24  0  0  1  0            999 V2000
    0.1049    2.3734   -0.1877 C   0  0  0  0  0  0
    0.0756    0.9682   -0.2920 C   0  0  0  0  0  0
    1.2579    0.2184   -0.1210 C   0  0  0  0  0  0
    2.4839    0.8658    0.1514 C   0  0  0  0  0  0
    2.4915    2.2702    0.2599 C   0  0  0  0  0  0
    1.3192    3.0315    0.0884 C   0  0  0  0  0  0
    3.7426    0.0338    0.3712 C   0  0  0  0  0  0
    4.9847    0.4339   -0.3021 N   0  0  0  0  0  0
    5.4131    1.5815   -0.8524 C   0  0  0  0  0  0
    4.6945    2.9233   -0.6475 C   0  0  0  0  0  0
    3.7816    2.9605    0.5098 N   0  3  0  0  0  0
    6.4537    1.5790   -1.5063 O   0  0  0  0  0  0
   -0.8021    2.9462   -0.3213 H   0  0  0  0  0  0
   -0.8579    0.4626   -0.5023 H   0  0  0  0  0  0
    1.2160   -0.8593   -0.1978 H   0  0  0  0  0  0
    1.3473    4.1079    0.1610 H   0  0  0  0  0  0
    3.9376    0.0012    1.4440 H   0  0  0  0  0  0
    3.5399   -0.9980    0.0819 H   0  0  0  0  0  0
    5.6101   -0.3438   -0.4675 H   0  0  0  0  0  0
    5.4529    3.6949   -0.5071 H   0  0  0  0  0  0
    4.1579    3.1834   -1.5616 H   0  0  0  0  0  0
    3.6004    3.9225    0.7388 H   0  0  0  0  0  0
    4.2487    2.5511    1.3014 H   0  0  0  0  0  0
  1  2  2  0  0  0
  1  6  1  0  0  0
  1 13  1  0  0  0
  2  3  1  0  0  0
  2 14  1  0  0  0
  3  4  2  0  0  0
  3 15  1  0  0  0
  4  5  1  0  0  0
  4  7  1  0  0  0
  5  6  2  0  0  0
  5 11  1  0  0  0
  6 16  1  0  0  0
  7  8  1  0  0  0
  7 17  1  0  0  0
  7 18  1  0  0  0
  8  9  1  0  0  0
  8 19  1  0  0  0
  9 10  1  0  0  0
  9 12  2  0  0  0
 10 11  1  0  0  0
 10 20  1  0  0  0
 10 21  1  0  0  0
 11 22  1  0  0  0
 11 23  1  0  0  0
M  CHG  1  11   1
M  END
> <s_m_entry_name>
Schrodinger_fragment_536

> <i_m_number_of_atoms>
22

> <r_m_molecular_weight>
162.19285

> <s_m_molecular_formula>
C9H10N2O1

> <r_epik_Ionization_Penalty>
  1.2394

> <r_epik_Ionization_Penalty_Charging>
  1.2393

> <r_epik_Ionization_Penalty_Neutral>
  0.0000

> <r_epik_State_Penalty>
  0.6197

> <i_epik_Tot_Q>
1

> <r_epik_Metal_State_Penalty>
  0.6519

> <b_epik_Metal_Only>
0

> <s_m_entry_id>
5027

> <s_canvas_Unique_SMILES_Stereo>
c1cccc(c12)[NH2+]CC(=O)NC2

$$$$
Schrodinger_fragment_432_b
                    3D
 Structure written by MMmdl.
 22 23  0  0  1  0            999 V2000
    0.0547    2.3083    0.3688 C   0  0  0  0  0  0
    0.0530    0.9079    0.2343 C   0  0  0  0  0  0
    1.2540    0.2236   -0.0384 C   0  0  0  0  0  0
    2.4759    0.9222   -0.1783 C   0  0  0  0  0  0
    2.4619    2.3385   -0.0395 C   0  0  0  0  0  0
    1.2597    3.0226    0.2336 C   0  0  0  0  0  0
    3.7259    0.1133   -0.5279 C   0  0  0  0  0  0
    4.9102    0.4308    0.2708 N   0  0  0  0  0  0
    5.4906    1.5497    0.1371 C   0  0  0  0  0  0
    4.8955    2.6275   -0.7772 C   0  0  0  0  0  0
    3.7020    3.1855   -0.1194 N   0  3  0  0  0  0
    6.5030    1.8565    0.7703 O   0  5  0  0  0  0
   -0.8655    2.8350    0.5788 H   0  0  0  0  0  0
   -0.8722    0.3561    0.3372 H   0  0  0  0  0  0
    1.2295   -0.8515   -0.1482 H   0  0  0  0  0  0
    1.2577    4.0959    0.3478 H   0  0  0  0  0  0
    3.5007   -0.9455   -0.3890 H   0  0  0  0  0  0
    3.9234    0.2004   -1.5986 H   0  0  0  0  0  0
    5.6180    3.4350   -0.9158 H   0  0  0  0  0  0
    4.6795    2.2599   -1.7816 H   0  0  0  0  0  0
    3.4836    4.0533   -0.5755 H   0  0  0  0  0  0
    4.0047    3.3946    0.8173 H   0  0  0  0  0  0
  1  2  2  0  0  0
  1  6  1  0  0  0
  1 13  1  0  0  0
  2  3  1  0  0  0
  2 14  1  0  0  0
  3  4  2  0  0  0
  3 15  1  0  0  0
  4  5  1  0  0  0
  4  7  1  0  0  0
  5  6  2  0  0  0
  5 11  1  0  0  0
  6 16  1  0  0  0
  7  8  1  0  0  0
  7 17  1  0  0  0
  7 18  1  0  0  0
  8  9  2  0  0  0
  9 10  1  0  0  0
  9 12  1  0  0  0
 10 11  1  0  0  0
 10 19  1  0  0  0
 10 20  1  0  0  0
 11 21  1  0  0  0
 11 22  1  0  0  0
M  CHG  2  11   1  12  -1
M  END
> <s_m_entry_name>
Schrodinger_fragment_536

> <i_m_number_of_atoms>
22

> <r_m_molecular_weight>
162.19285

> <s_m_molecular_formula>
C9H10N2O1

> <r_epik_Ionization_Penalty>
  6.4241

> <r_epik_Ionization_Penalty_Charging>
  6.4241

> <r_epik_Ionization_Penalty_Neutral>
  0.0000

> <r_epik_State_Penalty>
  6.4161

> <i_epik_Tot_Q>
0

> <r_epik_Metal_State_Penalty>
  2.3555

> <b_epik_Metal_Only>
1

> <s_m_entry_id>
5028

> <s_canvas_Unique_SMILES_Stereo>
c1cccc(c12)[NH2+]CC([O-])=NC2

$$$$
Schrodinger_fragment_433
                    3D
 Structure written by MMmdl.
 25 26  0  0  1  0            999 V2000
   -0.0024   -1.4655    0.1862 C   0  0  0  0  0  0
    0.0403   -2.8649    0.1198 C   0  0  0  0  0  0
    1.2771   -3.5131   -0.0325 C   0  0  0  0  0  0
    2.4910   -2.7914   -0.1181 C   0  0  0  0  0  0
    2.4472   -1.3625   -0.0657 C   0  0  0  0  0  0
    1.1894   -0.7270    0.0923 C   0  0  0  0  0  0
    3.7432   -3.6781   -0.2481 C   0  0  0  0  0  0
    5.0809   -3.1659    0.0465 N   0  0  0  0  0  0
    5.5925   -1.9696   -0.2350 C   0  0  0  0  0  0
    4.7061   -0.9745   -0.9676 C   0  0  0  0  0  0
    3.5460   -0.5765   -0.1810 N   0  0  0  0  0  0
    6.7379   -1.6632    0.0936 O   0  0  0  0  0  0
    3.6531    0.7451    0.4422 C   0  0  0  0  0  0
   -0.9487   -0.9552    0.3006 H   0  0  0  0  0  0
   -0.8727   -3.4414    0.1865 H   0  0  0  0  0  0
    1.2904   -4.5936   -0.0771 H   0  0  0  0  0  0
    1.1106    0.3502    0.1237 H   0  0  0  0  0  0
    3.6065   -4.5526    0.3894 H   0  0  0  0  0  0
    3.7611   -4.0612   -1.2692 H   0  0  0  0  0  0
    5.6910   -3.8064    0.5355 H   0  0  0  0  0  0
    5.3021   -0.1064   -1.2560 H   0  0  0  0  0  0
    4.3772   -1.4196   -1.9086 H   0  0  0  0  0  0
    4.6878    1.0017    0.6758 H   0  0  0  0  0  0
    3.1029    0.7896    1.3837 H   0  0  0  0  0  0
    3.2590    1.5174   -0.2200 H   0  0  0  0  0  0
  1  2  2  0  0  0
  1  6  1  0  0  0
  1 14  1  0  0  0
  2  3  1  0  0  0
  2 15  1  0  0  0
  3  4  2  0  0  0
  3 16  1  0  0  0
  4  5  1  0  0  0
  4  7  1  0  0  0
  5  6  2  0  0  0
  5 11  1  0  0  0
  6 17  1  0  0  0
  7  8  1  0  0  0
  7 18  1  0  0  0
  7 19  1  0  0  0
  8  9  1  0  0  0
  8 20  1  0  0  0
  9 10  1  0  0  0
  9 12  2  0  0  0
 10 11  1  0  0  0
 10 21  1  0  0  0
 10 22  1  0  0  0
 11 13  1  0  0  0
 13 23  1  0  0  0
 13 24  1  0  0  0
 13 25  1  0  0  0
M  END
> <s_m_entry_name>
Schrodinger_fragment_537

> <i_m_number_of_atoms>
25

> <r_m_molecular_weight>
176.21994

> <s_m_molecular_formula>
C10H12N2O1

> <r_epik_Ionization_Penalty>
  0.0017

> <r_epik_Ionization_Penalty_Charging>
  0.0000

> <r_epik_Ionization_Penalty_Neutral>
  0.0017

> <r_epik_State_Penalty>
  0.0000

> <i_epik_Tot_Q>
0

> <r_epik_Metal_State_Penalty>
  0.0000

> <b_epik_Metal_Only>
0

> <s_m_entry_id>
5029

> <s_canvas_Unique_SMILES_Stereo>
C1NC(=O)CN(C)c(c12)cccc2

$$$$
Schrodinger_fragment_434
                    3D
 Structure written by MMmdl.
 25 26  0  0  1  0            999 V2000
    0.1319   -2.4246    0.5150 C   0  0  0  0  0  0
    0.1394   -3.7998    0.2303 C   0  0  0  0  0  0
    1.3281   -4.4180   -0.1975 C   0  0  0  0  0  0
    2.5250   -3.6794   -0.3450 C   0  0  0  0  0  0
    2.5099   -2.2834   -0.0627 C   0  0  0  0  0  0
    1.3119   -1.6739    0.3677 C   0  0  0  0  0  0
    3.7629   -4.4501   -0.8194 C   0  0  0  0  0  0
    4.9992   -4.2430   -0.0491 N   0  0  0  0  0  0
    5.5457   -3.0254    0.1508 C   0  0  0  0  0  0
    4.9334   -1.8412   -0.6010 C   0  0  0  0  0  0
    3.5877   -1.4850   -0.1785 N   0  0  0  0  0  0
    6.5078   -2.8277    0.8989 O   0  0  0  0  0  0
    5.5506   -5.4397    0.5955 C   0  0  0  0  0  0
   -0.7783   -1.9432    0.8445 H   0  0  0  0  0  0
   -0.7660   -4.3815    0.3397 H   0  0  0  0  0  0
    1.3120   -5.4777   -0.4116 H   0  0  0  0  0  0
    1.2818   -0.6159    0.5895 H   0  0  0  0  0  0
    3.5244   -5.5134   -0.8568 H   0  0  0  0  0  0
    3.9498   -4.1744   -1.8580 H   0  0  0  0  0  0
    5.5753   -0.9702   -0.4617 H   0  0  0  0  0  0
    4.9428   -2.0445   -1.6727 H   0  0  0  0  0  0
    3.4735   -0.5194    0.1154 H   0  0  0  0  0  0
    6.6212   -5.3543    0.7883 H   0  0  0  0  0  0
    5.4187   -6.3271   -0.0240 H   0  0  0  0  0  0
    5.0503   -5.6137    1.5485 H   0  0  0  0  0  0
  1  2  2  0  0  0
  1  6  1  0  0  0
  1 14  1  0  0  0
  2  3  1  0  0  0
  2 15  1  0  0  0
  3  4  2  0  0  0
  3 16  1  0  0  0
  4  5  1  0  0  0
  4  7  1  0  0  0
  5  6  2  0  0  0
  5 11  1  0  0  0
  6 17  1  0  0  0
  7  8  1  0  0  0
  7 18  1  0  0  0
  7 19  1  0  0  0
  8  9  1  0  0  0
  8 13  1  0  0  0
  9 10  1  0  0  0
  9 12  2  0  0  0
 10 11  1  0  0  0
 10 20  1  0  0  0
 10 21  1  0  0  0
 11 22  1  0  0  0
 13 23  1  0  0  0
 13 24  1  0  0  0
 13 25  1  0  0  0
M  END
> <s_m_entry_name>
Schrodinger_fragment_538

> <i_m_number_of_atoms>
25

> <r_m_molecular_weight>
176.21994

> <s_m_molecular_formula>
C10H12N2O1

> <r_epik_Ionization_Penalty>
  0.3080

> <r_epik_Ionization_Penalty_Charging>
  0.0000

> <r_epik_Ionization_Penalty_Neutral>
  0.3080

> <r_epik_State_Penalty>
  0.3080

> <i_epik_Tot_Q>
0

> <r_epik_Metal_State_Penalty>
  0.3080

> <b_epik_Metal_Only>
0

> <s_m_entry_id>
5030

> <s_canvas_Unique_SMILES_Stereo>
CN(C1)C(=O)CNc(c12)cccc2

$$$$
Schrodinger_fragment_434_a
                    3D
 Structure written by MMmdl.
 26 27  0  0  1  0            999 V2000
    0.0723   -2.3741    0.3876 C   0  0  0  0  0  0
    0.0657   -3.7391    0.0539 C   0  0  0  0  0  0
    1.2694   -4.3891   -0.2792 C   0  0  0  0  0  0
    2.5055   -3.6995   -0.2822 C   0  0  0  0  0  0
    2.4915   -2.3119    0.0492 C   0  0  0  0  0  0
    1.2851   -1.6624    0.3832 C   0  0  0  0  0  0
    3.7389   -4.5258   -0.6814 C   0  0  0  0  0  0
    5.0367   -4.2379   -0.0477 N   0  0  0  0  0  0
    5.5895   -3.0102    0.0108 C   0  0  0  0  0  0
    4.8780   -1.8784   -0.7159 C   0  0  0  0  0  0
    3.7164   -1.4470    0.0749 N   0  3  0  0  0  0
    6.6192   -2.7571    0.6410 O   0  0  0  0  0  0
    5.6790   -5.3878    0.6001 C   0  0  0  0  0  0
   -0.8503   -1.8721    0.6440 H   0  0  0  0  0  0
   -0.8655   -4.2906    0.0514 H   0  0  0  0  0  0
    1.2328   -5.4387   -0.5370 H   0  0  0  0  0  0
    1.2835   -0.6135    0.6382 H   0  0  0  0  0  0
    3.4969   -5.5784   -0.5282 H   0  0  0  0  0  0
    3.8634   -4.4286   -1.7609 H   0  0  0  0  0  0
    5.5669   -1.0386   -0.8168 H   0  0  0  0  0  0
    4.5958   -2.1629   -1.7307 H   0  0  0  0  0  0
    3.4617   -0.5298   -0.2494 H   0  0  0  0  0  0
    6.7546   -5.2573    0.7304 H   0  0  0  0  0  0
    5.5505   -6.2978    0.0128 H   0  0  0  0  0  0
    5.2415   -5.5561    1.5847 H   0  0  0  0  0  0
    4.0258   -1.3413    1.0275 H   0  0  0  0  0  0
  1  2  2  0  0  0
  1  6  1  0  0  0
  1 14  1  0  0  0
  2  3  1  0  0  0
  2 15  1  0  0  0
  3  4  2  0  0  0
  3 16  1  0  0  0
  4  5  1  0  0  0
  4  7  1  0  0  0
  5  6  2  0  0  0
  5 11  1  0  0  0
  6 17  1  0  0  0
  7  8  1  0  0  0
  7 18  1  0  0  0
  7 19  1  0  0  0
  8  9  1  0  0  0
  8 13  1  0  0  0
  9 10  1  0  0  0
  9 12  2  0  0  0
 10 11  1  0  0  0
 10 20  1  0  0  0
 10 21  1  0  0  0
 11 22  1  0  0  0
 11 26  1  0  0  0
 13 23  1  0  0  0
 13 24  1  0  0  0
 13 25  1  0  0  0
M  CHG  1  11   1
M  END
> <s_m_entry_name>
Schrodinger_fragment_538

> <i_m_number_of_atoms>
25

> <r_m_molecular_weight>
176.21994

> <s_m_molecular_formula>
C10H12N2O1

> <r_epik_Ionization_Penalty>
  1.0699

> <r_epik_Ionization_Penalty_Charging>
  1.0699

> <r_epik_Ionization_Penalty_Neutral>
  0.0000

> <r_epik_State_Penalty>
  0.5350

> <i_epik_Tot_Q>
1

> <r_epik_Metal_State_Penalty>
  0.5350

> <b_epik_Metal_Only>
0

> <s_m_entry_id>
5031

> <s_canvas_Unique_SMILES_Stereo>
CN(C1)C(=O)C[NH2+]c(c12)cccc2

$$$$
Schrodinger_fragment_435
                    3D
 Structure written by MMmdl.
 27 28  0  0  1  0            999 V2000
   -0.0356    2.1166    0.2058 C   0  0  0  0  0  0
   -0.0148    3.6096   -0.1543 C   0  0  0  0  0  0
    1.2758    3.9879   -0.9005 C   0  0  0  0  0  0
    2.4552    3.5257   -0.1564 N   0  0  0  0  0  0
    2.4355    2.1307    0.2053 N   0  0  0  0  0  0
    1.2445    1.7024    0.9510 C   0  0  0  0  0  0
    3.4614    4.3410    0.2520 C   0  0  0  0  0  0
    4.6712    3.7160    0.9564 C   0  0  0  0  0  0
    5.4815    2.7846    0.0212 C   0  0  0  0  0  0
    4.6428    1.8769   -0.9123 C   0  0  0  0  0  0
    3.4170    1.2869   -0.2052 C   0  0  0  0  0  0
    3.3775    0.0712   -0.0056 O   0  0  0  0  0  0
    3.4563    5.5573    0.0523 O   0  0  0  0  0  0
   -0.9126    1.8872    0.8120 H   0  0  0  0  0  0
   -0.1283    1.5248   -0.7058 H   0  0  0  0  0  0
   -0.8855    3.8634   -0.7599 H   0  0  0  0  0  0
   -0.0903    4.2037    0.7574 H   0  0  0  0  0  0
    1.2873    3.5198   -1.8857 H   0  0  0  0  0  0
    1.2915    5.0641   -1.0797 H   0  0  0  0  0  0
    1.2702    2.1705    1.9359 H   0  0  0  0  0  0
    1.2299    0.6262    1.1309 H   0  0  0  0  0  0
    5.3185    4.5045    1.3420 H   0  0  0  0  0  0
    4.3212    3.1713    1.8344 H   0  0  0  0  0  0
    6.1486    3.3906   -0.5928 H   0  0  0  0  0  0
    6.1324    2.1597    0.6336 H   0  0  0  0  0  0
    4.3065    2.4315   -1.7894 H   0  0  0  0  0  0
    5.2663    1.0702   -1.2994 H   0  0  0  0  0  0
  1  2  1  0  0  0
  1  6  1  0  0  0
  1 14  1  0  0  0
  1 15  1  0  0  0
  2  3  1  0  0  0
  2 16  1  0  0  0
  2 17  1  0  0  0
  3  4  1  0  0  0
  3 18  1  0  0  0
  3 19  1  0  0  0
  4  5  1  0  0  0
  4  7  1  0  0  0
  5  6  1  0  0  0
  5 11  1  0  0  0
  6 20  1  0  0  0
  6 21  1  0  0  0
  7  8  1  0  0  0
  7 13  2  0  0  0
  8  9  1  0  0  0
  8 22  1  0  0  0
  8 23  1  0  0  0
  9 10  1  0  0  0
  9 24  1  0  0  0
  9 25  1  0  0  0
 10 11  1  0  0  0
 10 26  1  0  0  0
 10 27  1  0  0  0
 11 12  2  0  0  0
M  END
> <s_m_entry_name>
Schrodinger_fragment_539

> <i_m_number_of_atoms>
27

> <r_m_molecular_weight>
182.22413

> <s_m_molecular_formula>
C9H14N2O2

> <r_epik_Ionization_Penalty>
  0.0000

> <r_epik_Ionization_Penalty_Charging>
  0.0000

> <r_epik_Ionization_Penalty_Neutral>
  0.0000

> <r_epik_State_Penalty>
  0.0000

> <i_epik_Tot_Q>
0

> <r_epik_Metal_State_Penalty>
  0.0000

> <b_epik_Metal_Only>
0

> <s_m_entry_id>
5032

> <s_canvas_Unique_SMILES_Stereo>
C1CCCN(N12)C(=O)CCCC2=O

$$$$
Schrodinger_fragment_436
                    3D
 Structure written by MMmdl.
 21 22  0  0  1  0            999 V2000
    0.0414    2.9122    0.3645 C   0  0  0  0  0  0
    0.0742    1.5184    0.1941 C   0  0  0  0  0  0
    1.2920    0.8764   -0.0918 C   0  0  0  0  0  0
    2.4923    1.6128   -0.1966 C   0  0  0  0  0  0
    2.4640    3.0345   -0.0395 C   0  0  0  0  0  0
    1.2263    3.6605    0.2393 C   0  0  0  0  0  0
    3.6602    0.8549   -0.4877 N   0  0  0  0  0  0
    4.8857    1.0467    0.0184 C   0  0  0  0  0  0
    5.1043    2.2578    0.9245 C   0  0  0  0  0  0
    4.8630    3.4836    0.1770 N   0  0  0  0  0  0
    3.6713    3.9214   -0.2396 C   0  0  0  0  0  0
    3.5528    5.0347   -0.7534 O   0  0  0  0  0  0
    5.8178    0.2827   -0.2356 O   0  0  0  0  0  0
   -0.8945    3.4102    0.5796 H   0  0  0  0  0  0
   -0.8354    0.9401    0.2806 H   0  0  0  0  0  0
    1.2971   -0.1977   -0.2191 H   0  0  0  0  0  0
    1.1802    4.7354    0.3520 H   0  0  0  0  0  0
    3.5302   -0.0003   -1.0097 H   0  0  0  0  0  0
    4.4592    2.1962    1.8026 H   0  0  0  0  0  0
    6.1315    2.2604    1.2901 H   0  0  0  0  0  0
    5.6619    4.0768    0.0071 H   0  0  0  0  0  0
  1  2  2  0  0  0
  1  6  1  0  0  0
  1 14  1  0  0  0
  2  3  1  0  0  0
  2 15  1  0  0  0
  3  4  2  0  0  0
  3 16  1  0  0  0
  4  5  1  0  0  0
  4  7  1  0  0  0
  5  6  2  0  0  0
  5 11  1  0  0  0
  6 17  1  0  0  0
  7  8  1  0  0  0
  7 18  1  0  0  0
  8  9  1  0  0  0
  8 13  2  0  0  0
  9 10  1  0  0  0
  9 19  1  0  0  0
  9 20  1  0  0  0
 10 11  1  0  0  0
 10 21  1  0  0  0
 11 12  2  0  0  0
M  END
> <s_m_entry_name>
Schrodinger_fragment_540

> <i_m_number_of_atoms>
21

> <r_m_molecular_weight>
176.17631

> <s_m_molecular_formula>
C9H8N2O2

> <r_epik_Ionization_Penalty>
  0.0000

> <r_epik_Ionization_Penalty_Charging>
  0.0000

> <r_epik_Ionization_Penalty_Neutral>
  0.0000

> <r_epik_State_Penalty>
  0.0000

> <i_epik_Tot_Q>
0

> <r_epik_Metal_State_Penalty>
  0.0263

> <b_epik_Metal_Only>
0

> <s_m_entry_id>
5033

> <s_canvas_Unique_SMILES_Stereo>
c1cccc(c12)NC(=O)CNC2=O

$$$$
Schrodinger_fragment_436_a
                    3D
 Structure written by MMmdl.
 20 21  0  0  1  0            999 V2000
    0.0573    2.9208    0.3576 C   0  0  0  0  0  0
    0.0978    1.5216    0.2518 C   0  0  0  0  0  0
    1.3161    0.8739   -0.0216 C   0  0  0  0  0  0
    2.5167    1.6016   -0.1805 C   0  0  0  0  0  0
    2.4762    3.0304   -0.0727 C   0  0  0  0  0  0
    1.2386    3.6648    0.1891 C   0  0  0  0  0  0
    3.6535    0.8265   -0.4857 N   0  0  0  0  0  0
    4.8142    1.0588   -0.0241 C   0  0  0  0  0  0
    5.0448    2.2308    0.9346 C   0  0  0  0  0  0
    4.8439    3.5012    0.2523 N   0  0  0  0  0  0
    3.6848    3.9165   -0.2650 C   0  0  0  0  0  0
    3.5876    5.0142   -0.8179 O   0  0  0  0  0  0
    5.8053    0.3862   -0.3231 O   0  5  0  0  0  0
   -0.8782    3.4239    0.5619 H   0  0  0  0  0  0
   -0.8069    0.9421    0.3737 H   0  0  0  0  0  0
    1.3165   -0.2049   -0.1085 H   0  0  0  0  0  0
    1.1929    4.7428    0.2651 H   0  0  0  0  0  0
    4.3890    2.1505    1.8044 H   0  0  0  0  0  0
    6.0635    2.2093    1.3268 H   0  0  0  0  0  0
    5.6558    4.0862    0.1269 H   0  0  0  0  0  0
  1  2  2  0  0  0
  1  6  1  0  0  0
  1 14  1  0  0  0
  2  3  1  0  0  0
  2 15  1  0  0  0
  3  4  2  0  0  0
  3 16  1  0  0  0
  4  5  1  0  0  0
  4  7  1  0  0  0
  5  6  2  0  0  0
  5 11  1  0  0  0
  6 17  1  0  0  0
  7  8  2  0  0  0
  8  9  1  0  0  0
  8 13  1  0  0  0
  9 10  1  0  0  0
  9 18  1  0  0  0
  9 19  1  0  0  0
 10 11  1  0  0  0
 10 20  1  0  0  0
 11 12  2  0  0  0
M  CHG  1  13  -1
M  END
> <s_m_entry_name>
Schrodinger_fragment_540

> <i_m_number_of_atoms>
21

> <r_m_molecular_weight>
176.17631

> <s_m_molecular_formula>
C9H8N2O2

> <r_epik_Ionization_Penalty>
  6.2738

> <r_epik_Ionization_Penalty_Charging>
  6.2738

> <r_epik_Ionization_Penalty_Neutral>
  0.0000

> <r_epik_State_Penalty>
  6.2737

> <i_epik_Tot_Q>
-1

> <r_epik_Metal_State_Penalty>
  2.2101

> <b_epik_Metal_Only>
1

> <s_m_entry_id>
5034

> <s_canvas_Unique_SMILES_Stereo>
c1cccc(c12)N=C([O-])CNC2=O

$$$$
Schrodinger_fragment_436_b
                    3D
 Structure written by MMmdl.
 20 21  0  0  1  0            999 V2000
    0.0512    2.9167    0.3698 C   0  0  0  0  0  0
    0.0647    1.5271    0.1708 C   0  0  0  0  0  0
    1.2769    0.8764   -0.1146 C   0  0  0  0  0  0
    2.4850    1.6030   -0.1985 C   0  0  0  0  0  0
    2.4856    3.0261   -0.0411 C   0  0  0  0  0  0
    1.2469    3.6517    0.2636 C   0  0  0  0  0  0
    3.6529    0.8397   -0.4680 N   0  0  0  0  0  0
    4.8814    1.0710    0.0119 C   0  0  0  0  0  0
    5.0886    2.2875    0.9350 C   0  0  0  0  0  0
    4.8848    3.5453    0.2281 N   0  0  0  0  0  0
    3.7307    3.8697   -0.1834 C   0  0  0  0  0  0
    3.4718    4.9062   -0.8045 O   0  5  0  0  0  0
    5.8307    0.3372   -0.2628 O   0  0  0  0  0  0
   -0.8771    3.4229    0.5970 H   0  0  0  0  0  0
   -0.8523    0.9586    0.2439 H   0  0  0  0  0  0
    1.2736   -0.1963   -0.2521 H   0  0  0  0  0  0
    1.2084    4.7216    0.4132 H   0  0  0  0  0  0
    3.5299   -0.0184   -0.9857 H   0  0  0  0  0  0
    4.4308    2.2016    1.8037 H   0  0  0  0  0  0
    6.1037    2.2542    1.3344 H   0  0  0  0  0  0
  1  2  2  0  0  0
  1  6  1  0  0  0
  1 14  1  0  0  0
  2  3  1  0  0  0
  2 15  1  0  0  0
  3  4  2  0  0  0
  3 16  1  0  0  0
  4  5  1  0  0  0
  4  7  1  0  0  0
  5  6  2  0  0  0
  5 11  1  0  0  0
  6 17  1  0  0  0
  7  8  1  0  0  0
  7 18  1  0  0  0
  8  9  1  0  0  0
  8 13  2  0  0  0
  9 10  1  0  0  0
  9 19  1  0  0  0
  9 20  1  0  0  0
 10 11  2  0  0  0
 11 12  1  0  0  0
M  CHG  1  12  -1
M  END
> <s_m_entry_name>
Schrodinger_fragment_540

> <i_m_number_of_atoms>
21

> <r_m_molecular_weight>
176.17631

> <s_m_molecular_formula>
C9H8N2O2

> <r_epik_Ionization_Penalty>
  6.4038

> <r_epik_Ionization_Penalty_Charging>
  6.4038

> <r_epik_Ionization_Penalty_Neutral>
  0.0000

> <r_epik_State_Penalty>
  6.4038

> <i_epik_Tot_Q>
-1

> <r_epik_Metal_State_Penalty>
  2.3373

> <b_epik_Metal_Only>
1

> <s_m_entry_id>
5035

> <s_canvas_Unique_SMILES_Stereo>
c1cccc(c12)NC(=O)CN=C2[O-]

$$$$
Schrodinger_fragment_437
                    3D
 Structure written by MMmdl.
 24 25  0  0  1  0            999 V2000
    0.0739   -2.3226    0.3258 C   0  0  0  0  0  0
    0.0577   -3.7217    0.4353 C   0  0  0  0  0  0
    1.2479   -4.4517    0.2704 C   0  0  0  0  0  0
    2.4790   -3.8025    0.0007 C   0  0  0  0  0  0
    2.4941   -2.3732   -0.0972 C   0  0  0  0  0  0
    1.2834   -1.6586    0.0569 C   0  0  0  0  0  0
    3.6437   -4.6303   -0.1739 N   0  0  0  0  0  0
    4.8379   -4.3657    0.4147 C   0  0  0  0  0  0
    4.9984   -3.0301    1.1424 C   0  0  0  0  0  0
    4.8770   -1.9433    0.1797 N   0  0  0  0  0  0
    3.7376   -1.5775   -0.4129 C   0  0  0  0  0  0
    3.6896   -0.6001   -1.1599 O   0  0  0  0  0  0
    5.8016   -5.1393    0.3739 O   0  0  0  0  0  0
    3.4945   -5.8994   -0.8986 C   0  0  0  0  0  0
   -0.8408   -1.7580    0.4463 H   0  0  0  0  0  0
   -0.8695   -4.2379    0.6434 H   0  0  0  0  0  0
    1.2019   -5.5280    0.3647 H   0  0  0  0  0  0
    1.2803   -0.5801   -0.0294 H   0  0  0  0  0  0
    4.2691   -2.9405    1.9493 H   0  0  0  0  0  0
    5.9834   -2.9833    1.6072 H   0  0  0  0  0  0
    5.7132   -1.4201   -0.0366 H   0  0  0  0  0  0
    4.3648   -6.1140   -1.5210 H   0  0  0  0  0  0
    2.6354   -5.8806   -1.5699 H   0  0  0  0  0  0
    3.3649   -6.7265   -0.1998 H   0  0  0  0  0  0
  1  2  2  0  0  0
  1  6  1  0  0  0
  1 15  1  0  0  0
  2  3  1  0  0  0
  2 16  1  0  0  0
  3  4  2  0  0  0
  3 17  1  0  0  0
  4  5  1  0  0  0
  4  7  1  0  0  0
  5  6  2  0  0  0
  5 11  1  0  0  0
  6 18  1  0  0  0
  7  8  1  0  0  0
  7 14  1  0  0  0
  8  9  1  0  0  0
  8 13  2  0  0  0
  9 10  1  0  0  0
  9 19  1  0  0  0
  9 20  1  0  0  0
 10 11  1  0  0  0
 10 21  1  0  0  0
 11 12  2  0  0  0
 14 22  1  0  0  0
 14 23  1  0  0  0
 14 24  1  0  0  0
M  END
> <s_m_entry_name>
Schrodinger_fragment_541

> <i_m_number_of_atoms>
24

> <r_m_molecular_weight>
190.2034

> <s_m_molecular_formula>
C10H10N2O2

> <r_epik_Ionization_Penalty>
  0.0000

> <r_epik_Ionization_Penalty_Charging>
  0.0000

> <r_epik_Ionization_Penalty_Neutral>
  0.0000

> <r_epik_State_Penalty>
  0.0000

> <i_epik_Tot_Q>
0

> <r_epik_Metal_State_Penalty>
  0.0264

> <b_epik_Metal_Only>
0

> <s_m_entry_id>
5036

> <s_canvas_Unique_SMILES_Stereo>
O=C1NCC(=O)N(C)c(c12)cccc2

$$$$
Schrodinger_fragment_437_a
                    3D
 Structure written by MMmdl.
 23 24  0  0  1  0            999 V2000
    0.0831   -2.3155    0.3357 C   0  0  0  0  0  0
    0.0465   -3.7163    0.3950 C   0  0  0  0  0  0
    1.2306   -4.4528    0.2228 C   0  0  0  0  0  0
    2.4710   -3.8076   -0.0139 C   0  0  0  0  0  0
    2.5145   -2.3766   -0.0903 C   0  0  0  0  0  0
    1.3038   -1.6589    0.0993 C   0  0  0  0  0  0
    3.6370   -4.6350   -0.1723 N   0  0  0  0  0  0
    4.8341   -4.3417    0.3968 C   0  0  0  0  0  0
    4.9887   -2.9986    1.1401 C   0  0  0  0  0  0
    4.8984   -1.8725    0.2185 N   0  0  0  0  0  0
    3.7884   -1.6075   -0.3306 C   0  0  0  0  0  0
    3.5961   -0.7146   -1.1620 O   0  5  0  0  0  0
    5.8108   -5.0974    0.3458 O   0  0  0  0  0  0
    3.4967   -5.9178   -0.8761 C   0  0  0  0  0  0
   -0.8234   -1.7421    0.4739 H   0  0  0  0  0  0
   -0.8884   -4.2276    0.5798 H   0  0  0  0  0  0
    1.1734   -5.5301    0.2928 H   0  0  0  0  0  0
    1.3102   -0.5783    0.0653 H   0  0  0  0  0  0
    4.2512   -2.9338    1.9443 H   0  0  0  0  0  0
    5.9596   -2.9839    1.6377 H   0  0  0  0  0  0
    4.3731   -6.1442   -1.4856 H   0  0  0  0  0  0
    2.6459   -5.9122   -1.5578 H   0  0  0  0  0  0
    3.3604   -6.7312   -0.1629 H   0  0  0  0  0  0
  1  2  2  0  0  0
  1  6  1  0  0  0
  1 15  1  0  0  0
  2  3  1  0  0  0
  2 16  1  0  0  0
  3  4  2  0  0  0
  3 17  1  0  0  0
  4  5  1  0  0  0
  4  7  1  0  0  0
  5  6  2  0  0  0
  5 11  1  0  0  0
  6 18  1  0  0  0
  7  8  1  0  0  0
  7 14  1  0  0  0
  8  9  1  0  0  0
  8 13  2  0  0  0
  9 10  1  0  0  0
  9 19  1  0  0  0
  9 20  1  0  0  0
 10 11  2  0  0  0
 11 12  1  0  0  0
 14 21  1  0  0  0
 14 22  1  0  0  0
 14 23  1  0  0  0
M  CHG  1  12  -1
M  END
> <s_m_entry_name>
Schrodinger_fragment_541

> <i_m_number_of_atoms>
24

> <r_m_molecular_weight>
190.2034

> <s_m_molecular_formula>
C10H10N2O2

> <r_epik_Ionization_Penalty>
  5.9229

> <r_epik_Ionization_Penalty_Charging>
  5.9229

> <r_epik_Ionization_Penalty_Neutral>
  0.0000

> <r_epik_State_Penalty>
  5.9229

> <i_epik_Tot_Q>
-1

> <r_epik_Metal_State_Penalty>
  1.8566

> <b_epik_Metal_Only>
1

> <s_m_entry_id>
5037

> <s_canvas_Unique_SMILES_Stereo>
[O-]C1=NCC(=O)N(C)c(c12)cccc2

$$$$
Schrodinger_fragment_438
                    3D
 Structure written by MMmdl.
 24 25  0  0  1  0            999 V2000
    0.0356   -2.5018    0.4696 C   0  0  0  0  0  0
    0.0975   -3.8763    0.1888 C   0  0  0  0  0  0
    1.3236   -4.4624   -0.1706 C   0  0  0  0  0  0
    2.5033   -3.6895   -0.2412 C   0  0  0  0  0  0
    2.4462   -2.2844    0.0250 C   0  0  0  0  0  0
    1.1990   -1.7159    0.3789 C   0  0  0  0  0  0
    3.6838   -4.3969   -0.5974 N   0  0  0  0  0  0
    4.9026   -4.2093   -0.0765 C   0  0  0  0  0  0
    5.0832   -3.0467    0.8959 C   0  0  0  0  0  0
    4.8614   -1.7852    0.1880 N   0  0  0  0  0  0
    3.6244   -1.3470   -0.1414 C   0  0  0  0  0  0
    3.4255   -0.2028   -0.5659 O   0  0  0  0  0  0
    5.8513   -4.9423   -0.3572 O   0  0  0  0  0  0
    6.0360   -0.9340   -0.0293 C   0  0  0  0  0  0
   -0.9068   -2.0462    0.7425 H   0  0  0  0  0  0
   -0.7957   -4.4828    0.2485 H   0  0  0  0  0  0
    1.3523   -5.5235   -0.3787 H   0  0  0  0  0  0
    1.1267   -0.6545    0.5753 H   0  0  0  0  0  0
    3.5684   -5.2229   -1.1689 H   0  0  0  0  0  0
    4.3999   -3.1508    1.7406 H   0  0  0  0  0  0
    6.0849   -3.0871    1.3249 H   0  0  0  0  0  0
    5.9927   -0.4332   -0.9981 H   0  0  0  0  0  0
    6.9638   -1.5065   -0.0127 H   0  0  0  0  0  0
    6.0969   -0.1683    0.7450 H   0  0  0  0  0  0
  1  2  2  0  0  0
  1  6  1  0  0  0
  1 15  1  0  0  0
  2  3  1  0  0  0
  2 16  1  0  0  0
  3  4  2  0  0  0
  3 17  1  0  0  0
  4  5  1  0  0  0
  4  7  1  0  0  0
  5  6  2  0  0  0
  5 11  1  0  0  0
  6 18  1  0  0  0
  7  8  1  0  0  0
  7 19  1  0  0  0
  8  9  1  0  0  0
  8 13  2  0  0  0
  9 10  1  0  0  0
  9 20  1  0  0  0
  9 21  1  0  0  0
 10 11  1  0  0  0
 10 14  1  0  0  0
 11 12  2  0  0  0
 14 22  1  0  0  0
 14 23  1  0  0  0
 14 24  1  0  0  0
M  END
> <s_m_entry_name>
Schrodinger_fragment_542

> <i_m_number_of_atoms>
24

> <r_m_molecular_weight>
190.2034

> <s_m_molecular_formula>
C10H10N2O2

> <r_epik_Ionization_Penalty>
  0.0000

> <r_epik_Ionization_Penalty_Charging>
  0.0000

> <r_epik_Ionization_Penalty_Neutral>
  0.0000

> <r_epik_State_Penalty>
  0.0000

> <i_epik_Tot_Q>
0

> <r_epik_Metal_State_Penalty>
  0.0131

> <b_epik_Metal_Only>
0

> <s_m_entry_id>
5038

> <s_canvas_Unique_SMILES_Stereo>
O=C1N(C)CC(=O)Nc(c12)cccc2

$$$$
Schrodinger_fragment_438_a
                    3D
 Structure written by MMmdl.
 23 24  0  0  1  0            999 V2000
    0.0565   -2.4779    0.4726 C   0  0  0  0  0  0
    0.1173   -3.8687    0.2947 C   0  0  0  0  0  0
    1.3350   -4.4771   -0.0588 C   0  0  0  0  0  0
    2.5145   -3.7181   -0.2286 C   0  0  0  0  0  0
    2.4546   -2.2975   -0.0501 C   0  0  0  0  0  0
    1.2162   -1.7032    0.2937 C   0  0  0  0  0  0
    3.6524   -4.4560   -0.6060 N   0  0  0  0  0  0
    4.8194   -4.2185   -0.1689 C   0  0  0  0  0  0
    5.0503   -3.0831    0.8278 C   0  0  0  0  0  0
    4.8452   -1.7782    0.1922 N   0  0  0  0  0  0
    3.6353   -1.3731   -0.2550 C   0  0  0  0  0  0
    3.4538   -0.2560   -0.7558 O   0  0  0  0  0  0
    5.8143   -4.8625   -0.5139 O   0  5  0  0  0  0
    6.0197   -0.9038    0.0967 C   0  0  0  0  0  0
   -0.8787   -2.0041    0.7392 H   0  0  0  0  0  0
   -0.7709   -4.4716    0.4239 H   0  0  0  0  0  0
    1.3521   -5.5502   -0.1976 H   0  0  0  0  0  0
    1.1516   -0.6313    0.4245 H   0  0  0  0  0  0
    4.3843   -3.1912    1.6869 H   0  0  0  0  0  0
    6.0536   -3.1551    1.2522 H   0  0  0  0  0  0
    6.0386   -0.3600   -0.8493 H   0  0  0  0  0  0
    6.9548   -1.4613    0.1545 H   0  0  0  0  0  0
    6.0104   -0.1730    0.9059 H   0  0  0  0  0  0
  1  2  2  0  0  0
  1  6  1  0  0  0
  1 15  1  0  0  0
  2  3  1  0  0  0
  2 16  1  0  0  0
  3  4  2  0  0  0
  3 17  1  0  0  0
  4  5  1  0  0  0
  4  7  1  0  0  0
  5  6  2  0  0  0
  5 11  1  0  0  0
  6 18  1  0  0  0
  7  8  2  0  0  0
  8  9  1  0  0  0
  8 13  1  0  0  0
  9 10  1  0  0  0
  9 19  1  0  0  0
  9 20  1  0  0  0
 10 11  1  0  0  0
 10 14  1  0  0  0
 11 12  2  0  0  0
 14 21  1  0  0  0
 14 22  1  0  0  0
 14 23  1  0  0  0
M  CHG  1  13  -1
M  END
> <s_m_entry_name>
Schrodinger_fragment_542

> <i_m_number_of_atoms>
24

> <r_m_molecular_weight>
190.2034

> <s_m_molecular_formula>
C10H10N2O2

> <r_epik_Ionization_Penalty>
  6.3428

> <r_epik_Ionization_Penalty_Charging>
  6.3428

> <r_epik_Ionization_Penalty_Neutral>
  0.0000

> <r_epik_State_Penalty>
  6.3428

> <i_epik_Tot_Q>
-1

> <r_epik_Metal_State_Penalty>
  2.2632

> <b_epik_Metal_Only>
1

> <s_m_entry_id>
5039

> <s_canvas_Unique_SMILES_Stereo>
O=C1N(C)CC([O-])=Nc(c12)cccc2

$$$$
Schrodinger_fragment_439
                    3D
 Structure written by MMmdl.
 21 22  0  0  1  0            999 V2000
    0.1579    2.9907    0.3370 C   0  0  0  0  0  0
    0.1584    1.5845    0.3365 C   0  0  0  0  0  0
    1.3464    0.8825    0.0608 C   0  0  0  0  0  0
    2.5477    1.5764   -0.1962 C   0  0  0  0  0  0
    2.5472    3.0008   -0.1957 C   0  0  0  0  0  0
    1.3454    3.6937    0.0618 C   0  0  0  0  0  0
    3.6863    0.7946   -0.5177 N   0  0  0  0  0  0
    4.9631    1.0546   -0.2035 C   0  0  0  0  0  0
    5.2948    2.2892    0.6403 C   0  0  0  0  0  0
    4.9623    3.5242   -0.2026 C   0  0  0  0  0  0
    3.6853    3.7835   -0.5166 N   0  0  0  0  0  0
    5.8626    4.2991   -0.5352 O   0  0  0  0  0  0
    5.8642    0.2804   -0.5356 O   0  0  0  0  0  0
   -0.7561    3.5319    0.5399 H   0  0  0  0  0  0
   -0.7553    1.0425    0.5390 H   0  0  0  0  0  0
    1.3268   -0.1986    0.0505 H   0  0  0  0  0  0
    1.3252    4.7748    0.0523 H   0  0  0  0  0  0
    3.5109   -0.0974   -0.9586 H   0  0  0  0  0  0
    4.7211    2.2887    1.5673 H   0  0  0  0  0  0
    6.3510    2.2895    0.9104 H   0  0  0  0  0  0
    3.5093    4.6757   -0.9571 H   0  0  0  0  0  0
  1  2  2  0  0  0
  1  6  1  0  0  0
  1 14  1  0  0  0
  2  3  1  0  0  0
  2 15  1  0  0  0
  3  4  2  0  0  0
  3 16  1  0  0  0
  4  5  1  0  0  0
  4  7  1  0  0  0
  5  6  2  0  0  0
  5 11  1  0  0  0
  6 17  1  0  0  0
  7  8  1  0  0  0
  7 18  1  0  0  0
  8  9  1  0  0  0
  8 13  2  0  0  0
  9 10  1  0  0  0
  9 19  1  0  0  0
  9 20  1  0  0  0
 10 11  1  0  0  0
 10 12  2  0  0  0
 11 21  1  0  0  0
M  END
> <s_m_entry_name>
Schrodinger_fragment_543

> <i_m_number_of_atoms>
21

> <r_m_molecular_weight>
176.17631

> <s_m_molecular_formula>
C9H8N2O2

> <r_epik_Ionization_Penalty>
  0.0010

> <r_epik_Ionization_Penalty_Charging>
  0.0000

> <r_epik_Ionization_Penalty_Neutral>
  0.0010

> <r_epik_State_Penalty>
  0.0000

> <i_epik_Tot_Q>
0

> <r_epik_Metal_State_Penalty>
  0.0000

> <b_epik_Metal_Only>
0

> <s_m_entry_id>
5040

> <s_canvas_Unique_SMILES_Stereo>
c1cccc(c12)NC(=O)CC(=O)N2

$$$$
Schrodinger_fragment_440
                    3D
 Structure written by MMmdl.
 24 25  0  0  1  0            999 V2000
    0.1243   -1.8495   -0.4323 C   0  0  0  0  0  0
    0.1758   -3.2143   -0.1022 C   0  0  0  0  0  0
    1.3950   -3.7933    0.2915 C   0  0  0  0  0  0
    2.5728   -3.0187    0.3470 C   0  0  0  0  0  0
    2.5266   -1.6268    0.0390 C   0  0  0  0  0  0
    1.2886   -1.0632   -0.3562 C   0  0  0  0  0  0
    3.7544   -3.6802    0.7595 N   0  0  0  0  0  0
    4.9760   -3.4924    0.2440 C   0  0  0  0  0  0
    5.1492   -2.4800   -0.8917 C   0  0  0  0  0  0
    4.9099   -1.0956   -0.2802 C   0  0  0  0  0  0
    3.6679   -0.7638    0.1601 N   0  0  0  0  0  0
    5.8599   -0.3014   -0.2512 O   0  0  0  0  0  0
    5.9393   -4.1591    0.6294 O   0  0  0  0  0  0
    3.4573    0.5932    0.6836 C   0  0  0  0  0  0
   -0.8118   -1.4016   -0.7370 H   0  0  0  0  0  0
   -0.7196   -3.8186   -0.1517 H   0  0  0  0  0  0
    1.4200   -4.8455    0.5402 H   0  0  0  0  0  0
    1.2169   -0.0144   -0.6088 H   0  0  0  0  0  0
    3.6505   -4.4471    1.4101 H   0  0  0  0  0  0
    6.1564   -2.5438   -1.3036 H   0  0  0  0  0  0
    4.4513   -2.6751   -1.7061 H   0  0  0  0  0  0
    4.2774    0.9120    1.3292 H   0  0  0  0  0  0
    2.5530    0.6568    1.2894 H   0  0  0  0  0  0
    3.3717    1.3089   -0.1348 H   0  0  0  0  0  0
  1  2  2  0  0  0
  1  6  1  0  0  0
  1 15  1  0  0  0
  2  3  1  0  0  0
  2 16  1  0  0  0
  3  4  2  0  0  0
  3 17  1  0  0  0
  4  5  1  0  0  0
  4  7  1  0  0  0
  5  6  2  0  0  0
  5 11  1  0  0  0
  6 18  1  0  0  0
  7  8  1  0  0  0
  7 19  1  0  0  0
  8  9  1  0  0  0
  8 13  2  0  0  0
  9 10  1  0  0  0
  9 20  1  0  0  0
  9 21  1  0  0  0
 10 11  1  0  0  0
 10 12  2  0  0  0
 11 14  1  0  0  0
 14 22  1  0  0  0
 14 23  1  0  0  0
 14 24  1  0  0  0
M  END
> <s_m_entry_name>
Schrodinger_fragment_545

> <i_m_number_of_atoms>
24

> <r_m_molecular_weight>
190.2034

> <s_m_molecular_formula>
C10H10N2O2

> <r_epik_Ionization_Penalty>
  0.0010

> <r_epik_Ionization_Penalty_Charging>
  0.0000

> <r_epik_Ionization_Penalty_Neutral>
  0.0010

> <r_epik_State_Penalty>
  0.0000

> <i_epik_Tot_Q>
0

> <r_epik_Metal_State_Penalty>
  0.0000

> <b_epik_Metal_Only>
0

> <s_m_entry_id>
5041

> <s_canvas_Unique_SMILES_Stereo>
CN1C(=O)CC(=O)Nc(c12)cccc2

$$$$
Schrodinger_fragment_441
                    3D
 Structure written by MMmdl.
 25 26  0  0  1  0            999 V2000
   -0.0294    2.3377    0.4407 C   0  0  0  0  0  0
   -0.0147    3.3917   -0.3892 C   0  0  0  0  0  0
    1.2716    4.0361   -0.8723 C   0  0  0  0  0  0
    2.4487    3.5332   -0.1429 N   0  0  0  0  0  0
    2.4284    2.1255    0.1920 N   0  0  0  0  0  0
    1.2382    1.6571    0.9231 C   0  0  0  0  0  0
    3.4694    4.3370    0.2553 C   0  0  0  0  0  0
    4.6739    3.7057    0.9625 C   0  0  0  0  0  0
    5.4874    2.7848    0.0215 C   0  0  0  0  0  0
    4.6454    1.8883   -0.9180 C   0  0  0  0  0  0
    3.4245    1.2923   -0.2083 C   0  0  0  0  0  0
    3.4008    0.0779    0.0025 O   0  0  0  0  0  0
    3.4809    5.5515    0.0442 O   0  0  0  0  0  0
   -0.9685    1.9265    0.7832 H   0  0  0  0  0  0
   -0.9419    3.8294   -0.7313 H   0  0  0  0  0  0
    1.3934    3.8449   -1.9389 H   0  0  0  0  0  0
    1.1579    5.1152   -0.7563 H   0  0  0  0  0  0
    1.3666    1.8457    1.9894 H   0  0  0  0  0  0
    1.0936    0.5816    0.8082 H   0  0  0  0  0  0
    5.3193    4.4903    1.3590 H   0  0  0  0  0  0
    4.3189    3.1528    1.8333 H   0  0  0  0  0  0
    6.1546    3.3963   -0.5870 H   0  0  0  0  0  0
    6.1374    2.1538    0.6288 H   0  0  0  0  0  0
    4.3048    2.4515   -1.7879 H   0  0  0  0  0  0
    5.2667    1.0852   -1.3160 H   0  0  0  0  0  0
  1  2  2  0  0  0
  1  6  1  0  0  0
  1 14  1  0  0  0
  2  3  1  0  0  0
  2 15  1  0  0  0
  3  4  1  0  0  0
  3 16  1  0  0  0
  3 17  1  0  0  0
  4  5  1  0  0  0
  4  7  1  0  0  0
  5  6  1  0  0  0
  5 11  1  0  0  0
  6 18  1  0  0  0
  6 19  1  0  0  0
  7  8  1  0  0  0
  7 13  2  0  0  0
  8  9  1  0  0  0
  8 20  1  0  0  0
  8 21  1  0  0  0
  9 10  1  0  0  0
  9 22  1  0  0  0
  9 23  1  0  0  0
 10 11  1  0  0  0
 10 24  1  0  0  0
 10 25  1  0  0  0
 11 12  2  0  0  0
M  END
> <s_m_entry_name>
Schrodinger_fragment_548

> <i_m_number_of_atoms>
25

> <r_m_molecular_weight>
180.20819

> <s_m_molecular_formula>
C9H12N2O2

> <r_epik_Ionization_Penalty>
  0.0000

> <r_epik_Ionization_Penalty_Charging>
  0.0000

> <r_epik_Ionization_Penalty_Neutral>
  0.0000

> <r_epik_State_Penalty>
  0.0000

> <i_epik_Tot_Q>
0

> <r_epik_Metal_State_Penalty>
  0.0000

> <b_epik_Metal_Only>
0

> <s_m_entry_id>
5042

> <s_canvas_Unique_SMILES_Stereo>
C1C=CCN(N12)C(=O)CCCC2=O

$$$$
